<?xml version="1.0" encoding="UTF-8"?>
<configuration>
    <input>
        <net-file value="intersection1.net.xml"/>
        <route-files value="intersection1.rou.xml"/>
    </input>
    <time>
        <begin value="0"/>
        <end value="3600"/>
    </time>
</configuration>