<?xml version="1.0" encoding="UTF-8"?>

<!-- generated on 2026-06-06T22:14:37.780152+01:00 by Eclipse SUMO netconvert 1.25.0
<netconvertConfiguration xmlns:xsi="http://www.w3.org/2001/XMLSchema-instance" xsi:noNamespaceSchemaLocation="http://sumo.dlr.de/xsd/netconvertConfiguration.xsd">

    <input>
        <node-files value="networks\intersection10\intersection10.nod.xml"/>
        <edge-files value="networks\intersection10\intersection10.edg.xml"/>
    </input>

    <output>
        <output-file value="networks\intersection10\intersection10.net.xml"/>
    </output>

</netconvertConfiguration>
-->

<net version="1.20" junctionCornerDetail="5" limitTurnSpeed="5.50" xmlns:xsi="http://www.w3.org/2001/XMLSchema-instance" xsi:noNamespaceSchemaLocation="http://sumo.dlr.de/xsd/net_file.xsd">

    <location netOffset="150.00,150.00" convBoundary="0.00,0.00,450.00,300.00" origBoundary="-150.00,-150.00,300.00,150.00" projParameter="!"/>

    <edge id=":C1_0" function="internal">
        <lane id=":C1_0_0" index="0" speed="6.51" length="9.03" shape="145.20,160.40 144.85,157.95 143.80,156.20 142.05,155.15 139.60,154.80"/>
        <lane id=":C1_0_1" index="1" speed="8.00" length="14.19" shape="148.40,160.40 147.85,156.55 146.20,153.80 143.45,152.15 139.60,151.60"/>
    </edge>
    <edge id=":C1_2" function="internal">
        <lane id=":C1_2_0" index="0" speed="9.26" length="19.35" shape="148.40,160.40 149.15,155.15 151.40,151.40 155.15,149.15 160.40,148.40"/>
    </edge>
    <edge id=":C1_3" function="internal">
        <lane id=":C1_3_0" index="0" speed="3.65" length="2.34" shape="148.40,160.40 149.20,159.20 150.00,158.80"/>
    </edge>
    <edge id=":C1_12" function="internal">
        <lane id=":C1_12_0" index="0" speed="3.65" length="2.34" shape="150.00,158.80 150.80,159.20 151.60,160.40"/>
    </edge>
    <edge id=":C1_4" function="internal">
        <lane id=":C1_4_0" index="0" speed="6.51" length="9.03" shape="160.40,154.80 157.95,155.15 156.20,156.20 155.15,157.95 154.80,160.40"/>
    </edge>
    <edge id=":C1_5" function="internal">
        <lane id=":C1_5_0" index="0" speed="13.89" length="20.80" shape="160.40,154.80 139.60,154.80"/>
        <lane id=":C1_5_1" index="1" speed="13.89" length="20.80" shape="160.40,151.60 139.60,151.60"/>
    </edge>
    <edge id=":C1_7" function="internal">
        <lane id=":C1_7_0" index="0" speed="3.65" length="1.44" shape="160.40,151.60 159.20,150.80"/>
    </edge>
    <edge id=":C1_13" function="internal">
        <lane id=":C1_13_0" index="0" speed="3.65" length="3.23" shape="159.20,150.80 158.80,150.00 159.20,149.20 160.40,148.40"/>
    </edge>
    <edge id=":C1_8" function="internal">
        <lane id=":C1_8_0" index="0" speed="13.89" length="20.80" shape="139.60,145.20 160.40,145.20"/>
        <lane id=":C1_8_1" index="1" speed="13.89" length="20.80" shape="139.60,148.40 160.40,148.40"/>
    </edge>
    <edge id=":C1_10" function="internal">
        <lane id=":C1_10_0" index="0" speed="9.26" length="5.01" shape="139.60,148.40 144.56,149.11"/>
    </edge>
    <edge id=":C1_11" function="internal">
        <lane id=":C1_11_0" index="0" speed="3.65" length="1.44" shape="139.60,148.40 140.80,149.20"/>
    </edge>
    <edge id=":C1_14" function="internal">
        <lane id=":C1_14_0" index="0" speed="9.26" length="14.34" shape="144.56,149.11 144.85,149.15 148.60,151.40 150.85,155.15 151.60,160.40"/>
    </edge>
    <edge id=":C1_15" function="internal">
        <lane id=":C1_15_0" index="0" speed="3.65" length="3.23" shape="140.80,149.20 141.20,150.00 140.80,150.80 139.60,151.60"/>
    </edge>
    <edge id=":C2_0" function="internal">
        <lane id=":C2_0_0" index="0" speed="13.89" length="20.80" shape="310.40,154.80 289.60,154.80"/>
        <lane id=":C2_0_1" index="1" speed="13.89" length="20.80" shape="310.40,151.60 289.60,151.60"/>
    </edge>
    <edge id=":C2_2" function="internal">
        <lane id=":C2_2_0" index="0" speed="9.26" length="5.01" shape="310.40,151.60 305.44,150.89"/>
    </edge>
    <edge id=":C2_3" function="internal">
        <lane id=":C2_3_0" index="0" speed="3.65" length="1.44" shape="310.40,151.60 309.20,150.80"/>
    </edge>
    <edge id=":C2_12" function="internal">
        <lane id=":C2_12_0" index="0" speed="9.26" length="14.34" shape="305.44,150.89 305.15,150.85 301.40,148.60 299.15,144.85 298.40,139.60"/>
    </edge>
    <edge id=":C2_13" function="internal">
        <lane id=":C2_13_0" index="0" speed="3.65" length="3.23" shape="309.20,150.80 308.80,150.00 309.20,149.20 310.40,148.40"/>
    </edge>
    <edge id=":C2_4" function="internal">
        <lane id=":C2_4_0" index="0" speed="6.51" length="9.03" shape="304.80,139.60 305.15,142.05 306.20,143.80 307.95,144.85 310.40,145.20"/>
        <lane id=":C2_4_1" index="1" speed="8.00" length="14.19" shape="301.60,139.60 302.15,143.45 303.80,146.20 306.55,147.85 310.40,148.40"/>
    </edge>
    <edge id=":C2_6" function="internal">
        <lane id=":C2_6_0" index="0" speed="9.26" length="19.35" shape="301.60,139.60 300.85,144.85 298.60,148.60 294.85,150.85 289.60,151.60"/>
    </edge>
    <edge id=":C2_7" function="internal">
        <lane id=":C2_7_0" index="0" speed="3.65" length="2.34" shape="301.60,139.60 300.80,140.80 300.00,141.20"/>
    </edge>
    <edge id=":C2_14" function="internal">
        <lane id=":C2_14_0" index="0" speed="3.65" length="2.34" shape="300.00,141.20 299.20,140.80 298.40,139.60"/>
    </edge>
    <edge id=":C2_8" function="internal">
        <lane id=":C2_8_0" index="0" speed="6.51" length="9.03" shape="289.60,145.20 292.05,144.85 293.80,143.80 294.85,142.05 295.20,139.60"/>
    </edge>
    <edge id=":C2_9" function="internal">
        <lane id=":C2_9_0" index="0" speed="13.89" length="20.80" shape="289.60,145.20 310.40,145.20"/>
        <lane id=":C2_9_1" index="1" speed="13.89" length="20.80" shape="289.60,148.40 310.40,148.40"/>
    </edge>
    <edge id=":C2_11" function="internal">
        <lane id=":C2_11_0" index="0" speed="3.65" length="1.44" shape="289.60,148.40 290.80,149.20"/>
    </edge>
    <edge id=":C2_15" function="internal">
        <lane id=":C2_15_0" index="0" speed="3.65" length="3.23" shape="290.80,149.20 291.20,150.00 290.80,150.80 289.60,151.60"/>
    </edge>
    <edge id=":E_0" function="internal">
        <lane id=":E_0_0" index="0" speed="3.65" length="4.67" shape="450.00,148.40 451.20,149.20 451.60,150.00 451.20,150.80 450.00,151.60"/>
    </edge>
    <edge id=":N1_0" function="internal">
        <lane id=":N1_0_0" index="0" speed="3.65" length="4.67" shape="151.60,300.00 150.80,301.20 150.00,301.60 149.20,301.20 148.40,300.00"/>
    </edge>
    <edge id=":S2_0" function="internal">
        <lane id=":S2_0_0" index="0" speed="3.65" length="4.67" shape="298.40,0.00 299.20,-1.20 300.00,-1.60 300.80,-1.20 301.60,0.00"/>
    </edge>
    <edge id=":W_0" function="internal">
        <lane id=":W_0_0" index="0" speed="3.65" length="4.67" shape="0.00,151.60 -1.20,150.80 -1.60,150.00 -1.20,149.20 0.00,148.40"/>
    </edge>

    <edge id="C1_C2" from="C1" to="C2" priority="-1">
        <lane id="C1_C2_0" index="0" speed="13.89" length="129.20" shape="160.40,145.20 289.60,145.20"/>
        <lane id="C1_C2_1" index="1" speed="13.89" length="129.20" shape="160.40,148.40 289.60,148.40"/>
    </edge>
    <edge id="C1_N1" from="C1" to="N1" priority="-1">
        <lane id="C1_N1_0" index="0" speed="13.89" length="139.60" shape="154.80,160.40 154.80,300.00"/>
        <lane id="C1_N1_1" index="1" speed="13.89" length="139.60" shape="151.60,160.40 151.60,300.00"/>
    </edge>
    <edge id="C1_W" from="C1" to="W" priority="-1">
        <lane id="C1_W_0" index="0" speed="13.89" length="139.60" shape="139.60,154.80 0.00,154.80"/>
        <lane id="C1_W_1" index="1" speed="13.89" length="139.60" shape="139.60,151.60 0.00,151.60"/>
    </edge>
    <edge id="C2_C1" from="C2" to="C1" priority="-1">
        <lane id="C2_C1_0" index="0" speed="13.89" length="129.20" shape="289.60,154.80 160.40,154.80"/>
        <lane id="C2_C1_1" index="1" speed="13.89" length="129.20" shape="289.60,151.60 160.40,151.60"/>
    </edge>
    <edge id="C2_E" from="C2" to="E" priority="-1">
        <lane id="C2_E_0" index="0" speed="13.89" length="139.60" shape="310.40,145.20 450.00,145.20"/>
        <lane id="C2_E_1" index="1" speed="13.89" length="139.60" shape="310.40,148.40 450.00,148.40"/>
    </edge>
    <edge id="C2_S2" from="C2" to="S2" priority="-1">
        <lane id="C2_S2_0" index="0" speed="13.89" length="139.60" shape="295.20,139.60 295.20,0.00"/>
        <lane id="C2_S2_1" index="1" speed="13.89" length="139.60" shape="298.40,139.60 298.40,0.00"/>
    </edge>
    <edge id="E2C2" from="E" to="C2" priority="-1">
        <lane id="E2C2_0" index="0" speed="13.89" length="139.60" shape="450.00,154.80 310.40,154.80"/>
        <lane id="E2C2_1" index="1" speed="13.89" length="139.60" shape="450.00,151.60 310.40,151.60"/>
    </edge>
    <edge id="N1_C1" from="N1" to="C1" priority="-1">
        <lane id="N1_C1_0" index="0" speed="13.89" length="139.60" shape="145.20,300.00 145.20,160.40"/>
        <lane id="N1_C1_1" index="1" speed="13.89" length="139.60" shape="148.40,300.00 148.40,160.40"/>
    </edge>
    <edge id="S2_C2" from="S2" to="C2" priority="-1">
        <lane id="S2_C2_0" index="0" speed="13.89" length="139.60" shape="304.80,0.00 304.80,139.60"/>
        <lane id="S2_C2_1" index="1" speed="13.89" length="139.60" shape="301.60,0.00 301.60,139.60"/>
    </edge>
    <edge id="W2C1" from="W" to="C1" priority="-1">
        <lane id="W2C1_0" index="0" speed="13.89" length="139.60" shape="0.00,145.20 139.60,145.20"/>
        <lane id="W2C1_1" index="1" speed="13.89" length="139.60" shape="0.00,148.40 139.60,148.40"/>
    </edge>

    <tlLogic id="C1" type="static" programID="0" offset="0">
        <phase duration="42" state="rrrrGGGgGGgg"/>
        <phase duration="3"  state="rrrrGyyyyyyy"/>
        <phase duration="42" state="GGGgGrrrrrrr"/>
        <phase duration="3"  state="yyyyGrrrrrrr"/>
    </tlLogic>
    <tlLogic id="C2" type="static" programID="0" offset="0">
        <phase duration="42" state="GGggrrrrGGGg"/>
        <phase duration="3"  state="yyyyrrrrGyyy"/>
        <phase duration="42" state="rrrrGGGgGrrr"/>
        <phase duration="3"  state="rrrryyyyGrrr"/>
    </tlLogic>

    <junction id="C1" type="traffic_light" x="150.00" y="150.00" incLanes="N1_C1_0 N1_C1_1 C2_C1_0 C2_C1_1 W2C1_0 W2C1_1" intLanes=":C1_0_0 :C1_0_1 :C1_2_0 :C1_12_0 :C1_4_0 :C1_5_0 :C1_5_1 :C1_13_0 :C1_8_0 :C1_8_1 :C1_14_0 :C1_15_0" shape="143.60,160.40 156.40,160.40 156.84,158.18 157.40,157.40 158.18,156.84 159.18,156.51 160.40,156.40 160.40,143.60 139.60,143.60 139.60,156.40 141.82,156.84 142.60,157.40 143.16,158.18 143.49,159.18">
        <request index="0"  response="000001100000" foes="100001100000" cont="0"/>
        <request index="1"  response="000001100000" foes="100001100000" cont="0"/>
        <request index="2"  response="011101100000" foes="011111100000" cont="0"/>
        <request index="3"  response="010000000000" foes="010000000000" cont="1"/>
        <request index="4"  response="000000000000" foes="000000000000" cont="0"/>
        <request index="5"  response="000000000000" foes="110000000111" cont="0"/>
        <request index="6"  response="000000000000" foes="110000000111" cont="0"/>
        <request index="7"  response="001100000100" foes="001100000100" cont="1"/>
        <request index="8"  response="000000000000" foes="000010000100" cont="0"/>
        <request index="9"  response="000000000000" foes="000010000100" cont="0"/>
        <request index="10" response="000001100000" foes="000001101100" cont="1"/>
        <request index="11" response="000001100011" foes="000001100011" cont="1"/>
    </junction>
    <junction id="C2" type="traffic_light" x="300.00" y="150.00" incLanes="E2C2_0 E2C2_1 S2_C2_0 S2_C2_1 C1_C2_0 C1_C2_1" intLanes=":C2_0_0 :C2_0_1 :C2_12_0 :C2_13_0 :C2_4_0 :C2_4_1 :C2_6_0 :C2_14_0 :C2_8_0 :C2_9_0 :C2_9_1 :C2_15_0" shape="310.40,156.40 310.40,143.60 308.18,143.16 307.40,142.60 306.84,141.82 306.51,140.82 306.40,139.60 293.60,139.60 293.16,141.82 292.60,142.60 291.82,143.16 290.82,143.49 289.60,143.60 289.60,156.40">
        <request index="0"  response="000000000000" foes="100001000000" cont="0"/>
        <request index="1"  response="000000000000" foes="100001000000" cont="0"/>
        <request index="2"  response="011000000000" foes="011011000000" cont="1"/>
        <request index="3"  response="011000110000" foes="011000110000" cont="1"/>
        <request index="4"  response="011000000000" foes="011000001000" cont="0"/>
        <request index="5"  response="011000000000" foes="011000001000" cont="0"/>
        <request index="6"  response="011000000111" foes="111000000111" cont="0"/>
        <request index="7"  response="000000000100" foes="000000000100" cont="1"/>
        <request index="8"  response="000000000000" foes="000000000000" cont="0"/>
        <request index="9"  response="000000000000" foes="000001111100" cont="0"/>
        <request index="10" response="000000000000" foes="000001111100" cont="0"/>
        <request index="11" response="000001000011" foes="000001000011" cont="1"/>
    </junction>
    <junction id="E" type="priority" x="450.00" y="150.00" incLanes="C2_E_0 C2_E_1" intLanes=":E_0_0" shape="450.00,150.00 450.00,143.60 450.00,150.00">
        <request index="0" response="0" foes="0" cont="0"/>
    </junction>
    <junction id="N1" type="priority" x="150.00" y="300.00" incLanes="C1_N1_0 C1_N1_1" intLanes=":N1_0_0" shape="150.00,300.00 156.40,300.00 150.00,300.00">
        <request index="0" response="0" foes="0" cont="0"/>
    </junction>
    <junction id="S2" type="priority" x="300.00" y="0.00" incLanes="C2_S2_0 C2_S2_1" intLanes=":S2_0_0" shape="300.00,0.00 293.60,0.00 300.00,0.00">
        <request index="0" response="0" foes="0" cont="0"/>
    </junction>
    <junction id="W" type="priority" x="0.00" y="150.00" incLanes="C1_W_0 C1_W_1" intLanes=":W_0_0" shape="0.00,150.00 0.00,156.40 0.00,150.00">
        <request index="0" response="0" foes="0" cont="0"/>
    </junction>

    <junction id=":C1_12_0" type="internal" x="150.00" y="158.80" incLanes=":C1_3_0 C2_C1_0 W2C1_1" intLanes=":C1_4_0 :C1_10_0"/>
    <junction id=":C1_13_0" type="internal" x="159.20" y="150.80" incLanes=":C1_7_0 N1_C1_1 W2C1_0 W2C1_1" intLanes=":C1_2_0 :C1_8_0 :C1_8_1"/>
    <junction id=":C1_14_0" type="internal" x="144.56" y="149.11" incLanes=":C1_10_0 C2_C1_0 C2_C1_1" intLanes=":C1_2_0 :C1_3_0 :C1_4_0 :C1_5_0 :C1_5_1"/>
    <junction id=":C1_15_0" type="internal" x="140.80" y="149.20" incLanes=":C1_11_0 C2_C1_0 C2_C1_1 N1_C1_0 N1_C1_1" intLanes=":C1_0_0 :C1_0_1 :C1_5_0 :C1_5_1"/>
    <junction id=":C2_12_0" type="internal" x="305.44" y="150.89" incLanes=":C2_2_0 C1_C2_0 C1_C2_1" intLanes=":C2_6_0 :C2_7_0 :C2_8_0 :C2_9_0 :C2_9_1"/>
    <junction id=":C2_13_0" type="internal" x="309.20" y="150.80" incLanes=":C2_3_0 C1_C2_0 C1_C2_1 S2_C2_0 S2_C2_1" intLanes=":C2_4_0 :C2_4_1 :C2_9_0 :C2_9_1"/>
    <junction id=":C2_14_0" type="internal" x="300.00" y="141.20" incLanes=":C2_7_0 C1_C2_0 E2C2_1" intLanes=":C2_2_0 :C2_8_0"/>
    <junction id=":C2_15_0" type="internal" x="290.80" y="149.20" incLanes=":C2_11_0 E2C2_0 E2C2_1 S2_C2_1" intLanes=":C2_0_0 :C2_0_1 :C2_6_0"/>

    <connection from="C1_C2" to="C2_S2" fromLane="0" toLane="0" via=":C2_8_0" tl="C2" linkIndex="8" dir="r" state="O"/>
    <connection from="C1_C2" to="C2_E" fromLane="0" toLane="0" via=":C2_9_0" tl="C2" linkIndex="9" dir="s" state="O"/>
    <connection from="C1_C2" to="C2_E" fromLane="1" toLane="1" via=":C2_9_1" tl="C2" linkIndex="10" dir="s" state="O"/>
    <connection from="C1_C2" to="C2_C1" fromLane="1" toLane="1" via=":C2_11_0" tl="C2" linkIndex="11" dir="t" state="o"/>
    <connection from="C1_N1" to="N1_C1" fromLane="1" toLane="1" via=":N1_0_0" dir="t" state="M"/>
    <connection from="C1_W" to="W2C1" fromLane="1" toLane="1" via=":W_0_0" dir="t" state="M"/>
    <connection from="C2_C1" to="C1_N1" fromLane="0" toLane="0" via=":C1_4_0" tl="C1" linkIndex="4" dir="r" state="O"/>
    <connection from="C2_C1" to="C1_W" fromLane="0" toLane="0" via=":C1_5_0" tl="C1" linkIndex="5" dir="s" state="O"/>
    <connection from="C2_C1" to="C1_W" fromLane="1" toLane="1" via=":C1_5_1" tl="C1" linkIndex="6" dir="s" state="O"/>
    <connection from="C2_C1" to="C1_C2" fromLane="1" toLane="1" via=":C1_7_0" tl="C1" linkIndex="7" dir="t" state="o"/>
    <connection from="C2_E" to="E2C2" fromLane="1" toLane="1" via=":E_0_0" dir="t" state="M"/>
    <connection from="C2_S2" to="S2_C2" fromLane="1" toLane="1" via=":S2_0_0" dir="t" state="M"/>
    <connection from="E2C2" to="C2_C1" fromLane="0" toLane="0" via=":C2_0_0" tl="C2" linkIndex="0" dir="s" state="O"/>
    <connection from="E2C2" to="C2_C1" fromLane="1" toLane="1" via=":C2_0_1" tl="C2" linkIndex="1" dir="s" state="O"/>
    <connection from="E2C2" to="C2_S2" fromLane="1" toLane="1" via=":C2_2_0" tl="C2" linkIndex="2" dir="l" state="o"/>
    <connection from="E2C2" to="C2_E" fromLane="1" toLane="1" via=":C2_3_0" tl="C2" linkIndex="3" dir="t" state="o"/>
    <connection from="N1_C1" to="C1_W" fromLane="0" toLane="0" via=":C1_0_0" tl="C1" linkIndex="0" dir="r" state="o"/>
    <connection from="N1_C1" to="C1_W" fromLane="1" toLane="1" via=":C1_0_1" tl="C1" linkIndex="1" dir="r" state="o"/>
    <connection from="N1_C1" to="C1_C2" fromLane="1" toLane="1" via=":C1_2_0" tl="C1" linkIndex="2" dir="l" state="o"/>
    <connection from="N1_C1" to="C1_N1" fromLane="1" toLane="1" via=":C1_3_0" tl="C1" linkIndex="3" dir="t" state="o"/>
    <connection from="S2_C2" to="C2_E" fromLane="0" toLane="0" via=":C2_4_0" tl="C2" linkIndex="4" dir="r" state="o"/>
    <connection from="S2_C2" to="C2_E" fromLane="1" toLane="1" via=":C2_4_1" tl="C2" linkIndex="5" dir="r" state="o"/>
    <connection from="S2_C2" to="C2_C1" fromLane="1" toLane="1" via=":C2_6_0" tl="C2" linkIndex="6" dir="l" state="o"/>
    <connection from="S2_C2" to="C2_S2" fromLane="1" toLane="1" via=":C2_7_0" tl="C2" linkIndex="7" dir="t" state="o"/>
    <connection from="W2C1" to="C1_C2" fromLane="0" toLane="0" via=":C1_8_0" tl="C1" linkIndex="8" dir="s" state="O"/>
    <connection from="W2C1" to="C1_C2" fromLane="1" toLane="1" via=":C1_8_1" tl="C1" linkIndex="9" dir="s" state="O"/>
    <connection from="W2C1" to="C1_N1" fromLane="1" toLane="1" via=":C1_10_0" tl="C1" linkIndex="10" dir="l" state="o"/>
    <connection from="W2C1" to="C1_W" fromLane="1" toLane="1" via=":C1_11_0" tl="C1" linkIndex="11" dir="t" state="o"/>

    <connection from=":C1_0" to="C1_W" fromLane="0" toLane="0" dir="r" state="M"/>
    <connection from=":C1_0" to="C1_W" fromLane="1" toLane="1" dir="r" state="M"/>
    <connection from=":C1_2" to="C1_C2" fromLane="0" toLane="1" dir="l" state="M"/>
    <connection from=":C1_3" to="C1_N1" fromLane="0" toLane="1" via=":C1_12_0" dir="t" state="m"/>
    <connection from=":C1_12" to="C1_N1" fromLane="0" toLane="1" dir="t" state="M"/>
    <connection from=":C1_4" to="C1_N1" fromLane="0" toLane="0" dir="r" state="M"/>
    <connection from=":C1_5" to="C1_W" fromLane="0" toLane="0" dir="s" state="M"/>
    <connection from=":C1_5" to="C1_W" fromLane="1" toLane="1" dir="s" state="M"/>
    <connection from=":C1_7" to="C1_C2" fromLane="0" toLane="1" via=":C1_13_0" dir="t" state="m"/>
    <connection from=":C1_13" to="C1_C2" fromLane="0" toLane="1" dir="t" state="M"/>
    <connection from=":C1_8" to="C1_C2" fromLane="0" toLane="0" dir="s" state="M"/>
    <connection from=":C1_8" to="C1_C2" fromLane="1" toLane="1" dir="s" state="M"/>
    <connection from=":C1_10" to="C1_N1" fromLane="0" toLane="1" via=":C1_14_0" dir="l" state="m"/>
    <connection from=":C1_14" to="C1_N1" fromLane="0" toLane="1" dir="l" state="M"/>
    <connection from=":C1_11" to="C1_W" fromLane="0" toLane="1" via=":C1_15_0" dir="t" state="m"/>
    <connection from=":C1_15" to="C1_W" fromLane="0" toLane="1" dir="t" state="M"/>
    <connection from=":C2_0" to="C2_C1" fromLane="0" toLane="0" dir="s" state="M"/>
    <connection from=":C2_0" to="C2_C1" fromLane="1" toLane="1" dir="s" state="M"/>
    <connection from=":C2_2" to="C2_S2" fromLane="0" toLane="1" via=":C2_12_0" dir="l" state="m"/>
    <connection from=":C2_12" to="C2_S2" fromLane="0" toLane="1" dir="l" state="M"/>
    <connection from=":C2_3" to="C2_E" fromLane="0" toLane="1" via=":C2_13_0" dir="t" state="m"/>
    <connection from=":C2_13" to="C2_E" fromLane="0" toLane="1" dir="t" state="M"/>
    <connection from=":C2_4" to="C2_E" fromLane="0" toLane="0" dir="r" state="M"/>
    <connection from=":C2_4" to="C2_E" fromLane="1" toLane="1" dir="r" state="M"/>
    <connection from=":C2_6" to="C2_C1" fromLane="0" toLane="1" dir="l" state="M"/>
    <connection from=":C2_7" to="C2_S2" fromLane="0" toLane="1" via=":C2_14_0" dir="t" state="m"/>
    <connection from=":C2_14" to="C2_S2" fromLane="0" toLane="1" dir="t" state="M"/>
    <connection from=":C2_8" to="C2_S2" fromLane="0" toLane="0" dir="r" state="M"/>
    <connection from=":C2_9" to="C2_E" fromLane="0" toLane="0" dir="s" state="M"/>
    <connection from=":C2_9" to="C2_E" fromLane="1" toLane="1" dir="s" state="M"/>
    <connection from=":C2_11" to="C2_C1" fromLane="0" toLane="1" via=":C2_15_0" dir="t" state="m"/>
    <connection from=":C2_15" to="C2_C1" fromLane="0" toLane="1" dir="t" state="M"/>
    <connection from=":E_0" to="E2C2" fromLane="0" toLane="1" dir="t" state="M"/>
    <connection from=":N1_0" to="N1_C1" fromLane="0" toLane="1" dir="t" state="M"/>
    <connection from=":S2_0" to="S2_C2" fromLane="0" toLane="1" dir="t" state="M"/>
    <connection from=":W_0" to="W2C1" fromLane="0" toLane="1" dir="t" state="M"/>

</net>
