<?xml version="1.0" encoding="UTF-8"?>
<nodes>
    <node id="C1" x="0"    y="0"    type="traffic_light"/>
    <node id="C2" x="150"  y="0"    type="traffic_light"/>
    <node id="N1" x="0"    y="150"  type="dead_end"/>
    <node id="S2" x="150"  y="-150" type="dead_end"/>
    <node id="W"  x="-150" y="0"    type="dead_end"/>
    <node id="E"  x="300"  y="0"    type="dead_end"/>
</nodes>