<?xml version="1.0" encoding="UTF-8"?>

<!-- generated on 2026-05-18T09:57:23.197200+01:00 by Eclipse SUMO netconvert 1.25.0
<netconvertConfiguration xmlns:xsi="http://www.w3.org/2001/XMLSchema-instance" xsi:noNamespaceSchemaLocation="http://sumo.dlr.de/xsd/netconvertConfiguration.xsd">

    <input>
        <node-files value="networks\linked\linked.nod.xml"/>
        <edge-files value="networks\linked\linked.edg.xml"/>
    </input>

    <output>
        <output-file value="networks\linked\linked.net.xml"/>
    </output>

</netconvertConfiguration>
-->

<net version="1.20" junctionCornerDetail="5" limitTurnSpeed="5.50" xmlns:xsi="http://www.w3.org/2001/XMLSchema-instance" xsi:noNamespaceSchemaLocation="http://sumo.dlr.de/xsd/net_file.xsd">

    <location netOffset="500.00,500.00" convBoundary="0.00,0.00,1000.00,1000.00" origBoundary="-500.00,-500.00,500.00,500.00" projParameter="!"/>

    <edge id=":Int1_0" function="internal">
        <lane id=":Int1_0_0" index="0" speed="6.51" length="9.03" shape="495.20,510.40 494.85,507.95 493.80,506.20 492.05,505.15 489.60,504.80"/>
    </edge>
    <edge id=":Int1_1" function="internal">
        <lane id=":Int1_1_0" index="0" speed="13.89" length="20.80" shape="495.20,510.40 495.20,489.60"/>
        <lane id=":Int1_1_1" index="1" speed="13.89" length="20.80" shape="498.40,510.40 498.40,489.60"/>
    </edge>
    <edge id=":Int1_3" function="internal">
        <lane id=":Int1_3_0" index="0" speed="9.26" length="5.01" shape="498.40,510.40 499.11,505.44"/>
    </edge>
    <edge id=":Int1_4" function="internal">
        <lane id=":Int1_4_0" index="0" speed="3.65" length="1.44" shape="498.40,510.40 499.20,509.20"/>
    </edge>
    <edge id=":Int1_20" function="internal">
        <lane id=":Int1_20_0" index="0" speed="9.26" length="14.34" shape="499.11,505.44 499.15,505.15 501.40,501.40 505.15,499.15 510.40,498.40"/>
    </edge>
    <edge id=":Int1_21" function="internal">
        <lane id=":Int1_21_0" index="0" speed="3.65" length="3.23" shape="499.20,509.20 500.00,508.80 500.80,509.20 501.60,510.40"/>
    </edge>
    <edge id=":Int1_5" function="internal">
        <lane id=":Int1_5_0" index="0" speed="6.51" length="9.03" shape="510.40,504.80 507.95,505.15 506.20,506.20 505.15,507.95 504.80,510.40"/>
    </edge>
    <edge id=":Int1_6" function="internal">
        <lane id=":Int1_6_0" index="0" speed="13.89" length="20.80" shape="510.40,504.80 489.60,504.80"/>
        <lane id=":Int1_6_1" index="1" speed="13.89" length="20.80" shape="510.40,501.60 489.60,501.60"/>
    </edge>
    <edge id=":Int1_8" function="internal">
        <lane id=":Int1_8_0" index="0" speed="9.26" length="5.01" shape="510.40,501.60 505.44,500.89"/>
    </edge>
    <edge id=":Int1_9" function="internal">
        <lane id=":Int1_9_0" index="0" speed="3.65" length="1.44" shape="510.40,501.60 509.20,500.80"/>
    </edge>
    <edge id=":Int1_22" function="internal">
        <lane id=":Int1_22_0" index="0" speed="9.26" length="14.34" shape="505.44,500.89 505.15,500.85 501.40,498.60 499.15,494.85 498.40,489.60"/>
    </edge>
    <edge id=":Int1_23" function="internal">
        <lane id=":Int1_23_0" index="0" speed="3.65" length="3.23" shape="509.20,500.80 508.80,500.00 509.20,499.20 510.40,498.40"/>
    </edge>
    <edge id=":Int1_10" function="internal">
        <lane id=":Int1_10_0" index="0" speed="6.51" length="9.03" shape="504.80,489.60 505.15,492.05 506.20,493.80 507.95,494.85 510.40,495.20"/>
    </edge>
    <edge id=":Int1_11" function="internal">
        <lane id=":Int1_11_0" index="0" speed="13.89" length="20.80" shape="504.80,489.60 504.80,510.40"/>
        <lane id=":Int1_11_1" index="1" speed="13.89" length="20.80" shape="501.60,489.60 501.60,510.40"/>
    </edge>
    <edge id=":Int1_13" function="internal">
        <lane id=":Int1_13_0" index="0" speed="9.26" length="5.01" shape="501.60,489.60 500.89,494.56"/>
    </edge>
    <edge id=":Int1_14" function="internal">
        <lane id=":Int1_14_0" index="0" speed="3.65" length="1.44" shape="501.60,489.60 500.80,490.80"/>
    </edge>
    <edge id=":Int1_24" function="internal">
        <lane id=":Int1_24_0" index="0" speed="9.26" length="14.34" shape="500.89,494.56 500.85,494.85 498.60,498.60 494.85,500.85 489.60,501.60"/>
    </edge>
    <edge id=":Int1_25" function="internal">
        <lane id=":Int1_25_0" index="0" speed="3.65" length="3.23" shape="500.80,490.80 500.00,491.20 499.20,490.80 498.40,489.60"/>
    </edge>
    <edge id=":Int1_15" function="internal">
        <lane id=":Int1_15_0" index="0" speed="6.51" length="9.03" shape="489.60,495.20 492.05,494.85 493.80,493.80 494.85,492.05 495.20,489.60"/>
    </edge>
    <edge id=":Int1_16" function="internal">
        <lane id=":Int1_16_0" index="0" speed="13.89" length="20.80" shape="489.60,495.20 510.40,495.20"/>
        <lane id=":Int1_16_1" index="1" speed="13.89" length="20.80" shape="489.60,498.40 510.40,498.40"/>
    </edge>
    <edge id=":Int1_18" function="internal">
        <lane id=":Int1_18_0" index="0" speed="9.26" length="5.01" shape="489.60,498.40 494.56,499.11"/>
    </edge>
    <edge id=":Int1_19" function="internal">
        <lane id=":Int1_19_0" index="0" speed="3.65" length="1.44" shape="489.60,498.40 490.80,499.20"/>
    </edge>
    <edge id=":Int1_26" function="internal">
        <lane id=":Int1_26_0" index="0" speed="9.26" length="14.34" shape="494.56,499.11 494.85,499.15 498.60,501.40 500.85,505.15 501.60,510.40"/>
    </edge>
    <edge id=":Int1_27" function="internal">
        <lane id=":Int1_27_0" index="0" speed="3.65" length="3.23" shape="490.80,499.20 491.20,500.00 490.80,500.80 489.60,501.60"/>
    </edge>
    <edge id=":Int2_0" function="internal">
        <lane id=":Int2_0_0" index="0" speed="6.51" length="9.03" shape="495.20,810.40 494.85,807.95 493.80,806.20 492.05,805.15 489.60,804.80"/>
    </edge>
    <edge id=":Int2_1" function="internal">
        <lane id=":Int2_1_0" index="0" speed="13.89" length="20.80" shape="495.20,810.40 495.20,789.60"/>
        <lane id=":Int2_1_1" index="1" speed="13.89" length="20.80" shape="498.40,810.40 498.40,789.60"/>
    </edge>
    <edge id=":Int2_3" function="internal">
        <lane id=":Int2_3_0" index="0" speed="9.26" length="5.01" shape="498.40,810.40 499.11,805.44"/>
    </edge>
    <edge id=":Int2_4" function="internal">
        <lane id=":Int2_4_0" index="0" speed="3.65" length="1.44" shape="498.40,810.40 499.20,809.20"/>
    </edge>
    <edge id=":Int2_20" function="internal">
        <lane id=":Int2_20_0" index="0" speed="9.26" length="14.34" shape="499.11,805.44 499.15,805.15 501.40,801.40 505.15,799.15 510.40,798.40"/>
    </edge>
    <edge id=":Int2_21" function="internal">
        <lane id=":Int2_21_0" index="0" speed="3.65" length="3.23" shape="499.20,809.20 500.00,808.80 500.80,809.20 501.60,810.40"/>
    </edge>
    <edge id=":Int2_5" function="internal">
        <lane id=":Int2_5_0" index="0" speed="6.51" length="9.03" shape="510.40,804.80 507.95,805.15 506.20,806.20 505.15,807.95 504.80,810.40"/>
    </edge>
    <edge id=":Int2_6" function="internal">
        <lane id=":Int2_6_0" index="0" speed="13.89" length="20.80" shape="510.40,804.80 489.60,804.80"/>
        <lane id=":Int2_6_1" index="1" speed="13.89" length="20.80" shape="510.40,801.60 489.60,801.60"/>
    </edge>
    <edge id=":Int2_8" function="internal">
        <lane id=":Int2_8_0" index="0" speed="9.26" length="5.01" shape="510.40,801.60 505.44,800.89"/>
    </edge>
    <edge id=":Int2_9" function="internal">
        <lane id=":Int2_9_0" index="0" speed="3.65" length="1.44" shape="510.40,801.60 509.20,800.80"/>
    </edge>
    <edge id=":Int2_22" function="internal">
        <lane id=":Int2_22_0" index="0" speed="9.26" length="14.34" shape="505.44,800.89 505.15,800.85 501.40,798.60 499.15,794.85 498.40,789.60"/>
    </edge>
    <edge id=":Int2_23" function="internal">
        <lane id=":Int2_23_0" index="0" speed="3.65" length="3.23" shape="509.20,800.80 508.80,800.00 509.20,799.20 510.40,798.40"/>
    </edge>
    <edge id=":Int2_10" function="internal">
        <lane id=":Int2_10_0" index="0" speed="6.51" length="9.03" shape="504.80,789.60 505.15,792.05 506.20,793.80 507.95,794.85 510.40,795.20"/>
    </edge>
    <edge id=":Int2_11" function="internal">
        <lane id=":Int2_11_0" index="0" speed="13.89" length="20.80" shape="504.80,789.60 504.80,810.40"/>
        <lane id=":Int2_11_1" index="1" speed="13.89" length="20.80" shape="501.60,789.60 501.60,810.40"/>
    </edge>
    <edge id=":Int2_13" function="internal">
        <lane id=":Int2_13_0" index="0" speed="9.26" length="5.01" shape="501.60,789.60 500.89,794.56"/>
    </edge>
    <edge id=":Int2_14" function="internal">
        <lane id=":Int2_14_0" index="0" speed="3.65" length="1.44" shape="501.60,789.60 500.80,790.80"/>
    </edge>
    <edge id=":Int2_24" function="internal">
        <lane id=":Int2_24_0" index="0" speed="9.26" length="14.34" shape="500.89,794.56 500.85,794.85 498.60,798.60 494.85,800.85 489.60,801.60"/>
    </edge>
    <edge id=":Int2_25" function="internal">
        <lane id=":Int2_25_0" index="0" speed="3.65" length="3.23" shape="500.80,790.80 500.00,791.20 499.20,790.80 498.40,789.60"/>
    </edge>
    <edge id=":Int2_15" function="internal">
        <lane id=":Int2_15_0" index="0" speed="6.51" length="9.03" shape="489.60,795.20 492.05,794.85 493.80,793.80 494.85,792.05 495.20,789.60"/>
    </edge>
    <edge id=":Int2_16" function="internal">
        <lane id=":Int2_16_0" index="0" speed="13.89" length="20.80" shape="489.60,795.20 510.40,795.20"/>
        <lane id=":Int2_16_1" index="1" speed="13.89" length="20.80" shape="489.60,798.40 510.40,798.40"/>
    </edge>
    <edge id=":Int2_18" function="internal">
        <lane id=":Int2_18_0" index="0" speed="9.26" length="5.01" shape="489.60,798.40 494.56,799.11"/>
    </edge>
    <edge id=":Int2_19" function="internal">
        <lane id=":Int2_19_0" index="0" speed="3.65" length="1.44" shape="489.60,798.40 490.80,799.20"/>
    </edge>
    <edge id=":Int2_26" function="internal">
        <lane id=":Int2_26_0" index="0" speed="9.26" length="14.34" shape="494.56,799.11 494.85,799.15 498.60,801.40 500.85,805.15 501.60,810.40"/>
    </edge>
    <edge id=":Int2_27" function="internal">
        <lane id=":Int2_27_0" index="0" speed="3.65" length="3.23" shape="490.80,799.20 491.20,800.00 490.80,800.80 489.60,801.60"/>
    </edge>
    <edge id=":Int2_E_0" function="internal">
        <lane id=":Int2_E_0_0" index="0" speed="3.65" length="4.67" shape="700.00,798.40 701.20,799.20 701.60,800.00 701.20,800.80 700.00,801.60"/>
    </edge>
    <edge id=":Int2_N_0" function="internal">
        <lane id=":Int2_N_0_0" index="0" speed="3.65" length="4.67" shape="501.60,1000.00 500.80,1001.20 500.00,1001.60 499.20,1001.20 498.40,1000.00"/>
    </edge>
    <edge id=":Int2_W_0" function="internal">
        <lane id=":Int2_W_0_0" index="0" speed="3.65" length="4.67" shape="300.00,801.60 298.80,800.80 298.40,800.00 298.80,799.20 300.00,798.40"/>
    </edge>
    <edge id=":Int3_0" function="internal">
        <lane id=":Int3_0_0" index="0" speed="6.51" length="9.03" shape="195.20,510.40 194.85,507.95 193.80,506.20 192.05,505.15 189.60,504.80"/>
    </edge>
    <edge id=":Int3_1" function="internal">
        <lane id=":Int3_1_0" index="0" speed="13.89" length="20.80" shape="195.20,510.40 195.20,489.60"/>
        <lane id=":Int3_1_1" index="1" speed="13.89" length="20.80" shape="198.40,510.40 198.40,489.60"/>
    </edge>
    <edge id=":Int3_3" function="internal">
        <lane id=":Int3_3_0" index="0" speed="9.26" length="5.01" shape="198.40,510.40 199.11,505.44"/>
    </edge>
    <edge id=":Int3_4" function="internal">
        <lane id=":Int3_4_0" index="0" speed="3.65" length="1.44" shape="198.40,510.40 199.20,509.20"/>
    </edge>
    <edge id=":Int3_20" function="internal">
        <lane id=":Int3_20_0" index="0" speed="9.26" length="14.34" shape="199.11,505.44 199.15,505.15 201.40,501.40 205.15,499.15 210.40,498.40"/>
    </edge>
    <edge id=":Int3_21" function="internal">
        <lane id=":Int3_21_0" index="0" speed="3.65" length="3.23" shape="199.20,509.20 200.00,508.80 200.80,509.20 201.60,510.40"/>
    </edge>
    <edge id=":Int3_5" function="internal">
        <lane id=":Int3_5_0" index="0" speed="6.51" length="9.03" shape="210.40,504.80 207.95,505.15 206.20,506.20 205.15,507.95 204.80,510.40"/>
    </edge>
    <edge id=":Int3_6" function="internal">
        <lane id=":Int3_6_0" index="0" speed="13.89" length="20.80" shape="210.40,504.80 189.60,504.80"/>
        <lane id=":Int3_6_1" index="1" speed="13.89" length="20.80" shape="210.40,501.60 189.60,501.60"/>
    </edge>
    <edge id=":Int3_8" function="internal">
        <lane id=":Int3_8_0" index="0" speed="9.26" length="5.01" shape="210.40,501.60 205.44,500.89"/>
    </edge>
    <edge id=":Int3_9" function="internal">
        <lane id=":Int3_9_0" index="0" speed="3.65" length="1.44" shape="210.40,501.60 209.20,500.80"/>
    </edge>
    <edge id=":Int3_22" function="internal">
        <lane id=":Int3_22_0" index="0" speed="9.26" length="14.34" shape="205.44,500.89 205.15,500.85 201.40,498.60 199.15,494.85 198.40,489.60"/>
    </edge>
    <edge id=":Int3_23" function="internal">
        <lane id=":Int3_23_0" index="0" speed="3.65" length="3.23" shape="209.20,500.80 208.80,500.00 209.20,499.20 210.40,498.40"/>
    </edge>
    <edge id=":Int3_10" function="internal">
        <lane id=":Int3_10_0" index="0" speed="6.51" length="9.03" shape="204.80,489.60 205.15,492.05 206.20,493.80 207.95,494.85 210.40,495.20"/>
    </edge>
    <edge id=":Int3_11" function="internal">
        <lane id=":Int3_11_0" index="0" speed="13.89" length="20.80" shape="204.80,489.60 204.80,510.40"/>
        <lane id=":Int3_11_1" index="1" speed="13.89" length="20.80" shape="201.60,489.60 201.60,510.40"/>
    </edge>
    <edge id=":Int3_13" function="internal">
        <lane id=":Int3_13_0" index="0" speed="9.26" length="5.01" shape="201.60,489.60 200.89,494.56"/>
    </edge>
    <edge id=":Int3_14" function="internal">
        <lane id=":Int3_14_0" index="0" speed="3.65" length="1.44" shape="201.60,489.60 200.80,490.80"/>
    </edge>
    <edge id=":Int3_24" function="internal">
        <lane id=":Int3_24_0" index="0" speed="9.26" length="14.34" shape="200.89,494.56 200.85,494.85 198.60,498.60 194.85,500.85 189.60,501.60"/>
    </edge>
    <edge id=":Int3_25" function="internal">
        <lane id=":Int3_25_0" index="0" speed="3.65" length="3.23" shape="200.80,490.80 200.00,491.20 199.20,490.80 198.40,489.60"/>
    </edge>
    <edge id=":Int3_15" function="internal">
        <lane id=":Int3_15_0" index="0" speed="6.51" length="9.03" shape="189.60,495.20 192.05,494.85 193.80,493.80 194.85,492.05 195.20,489.60"/>
    </edge>
    <edge id=":Int3_16" function="internal">
        <lane id=":Int3_16_0" index="0" speed="13.89" length="20.80" shape="189.60,495.20 210.40,495.20"/>
        <lane id=":Int3_16_1" index="1" speed="13.89" length="20.80" shape="189.60,498.40 210.40,498.40"/>
    </edge>
    <edge id=":Int3_18" function="internal">
        <lane id=":Int3_18_0" index="0" speed="9.26" length="5.01" shape="189.60,498.40 194.56,499.11"/>
    </edge>
    <edge id=":Int3_19" function="internal">
        <lane id=":Int3_19_0" index="0" speed="3.65" length="1.44" shape="189.60,498.40 190.80,499.20"/>
    </edge>
    <edge id=":Int3_26" function="internal">
        <lane id=":Int3_26_0" index="0" speed="9.26" length="14.34" shape="194.56,499.11 194.85,499.15 198.60,501.40 200.85,505.15 201.60,510.40"/>
    </edge>
    <edge id=":Int3_27" function="internal">
        <lane id=":Int3_27_0" index="0" speed="3.65" length="3.23" shape="190.80,499.20 191.20,500.00 190.80,500.80 189.60,501.60"/>
    </edge>
    <edge id=":Int3_N_0" function="internal">
        <lane id=":Int3_N_0_0" index="0" speed="3.65" length="4.67" shape="201.60,700.00 200.80,701.20 200.00,701.60 199.20,701.20 198.40,700.00"/>
    </edge>
    <edge id=":Int3_S_0" function="internal">
        <lane id=":Int3_S_0_0" index="0" speed="3.65" length="4.67" shape="198.40,300.00 199.20,298.80 200.00,298.40 200.80,298.80 201.60,300.00"/>
    </edge>
    <edge id=":Int3_W_0" function="internal">
        <lane id=":Int3_W_0_0" index="0" speed="3.65" length="4.67" shape="0.00,501.60 -1.20,500.80 -1.60,500.00 -1.20,499.20 0.00,498.40"/>
    </edge>
    <edge id=":Int4_0" function="internal">
        <lane id=":Int4_0_0" index="0" speed="6.51" length="9.03" shape="795.20,510.40 794.85,507.95 793.80,506.20 792.05,505.15 789.60,504.80"/>
    </edge>
    <edge id=":Int4_1" function="internal">
        <lane id=":Int4_1_0" index="0" speed="13.89" length="20.80" shape="795.20,510.40 795.20,489.60"/>
        <lane id=":Int4_1_1" index="1" speed="13.89" length="20.80" shape="798.40,510.40 798.40,489.60"/>
    </edge>
    <edge id=":Int4_3" function="internal">
        <lane id=":Int4_3_0" index="0" speed="9.26" length="5.01" shape="798.40,510.40 799.11,505.44"/>
    </edge>
    <edge id=":Int4_4" function="internal">
        <lane id=":Int4_4_0" index="0" speed="3.65" length="1.44" shape="798.40,510.40 799.20,509.20"/>
    </edge>
    <edge id=":Int4_20" function="internal">
        <lane id=":Int4_20_0" index="0" speed="9.26" length="14.34" shape="799.11,505.44 799.15,505.15 801.40,501.40 805.15,499.15 810.40,498.40"/>
    </edge>
    <edge id=":Int4_21" function="internal">
        <lane id=":Int4_21_0" index="0" speed="3.65" length="3.23" shape="799.20,509.20 800.00,508.80 800.80,509.20 801.60,510.40"/>
    </edge>
    <edge id=":Int4_5" function="internal">
        <lane id=":Int4_5_0" index="0" speed="6.51" length="9.03" shape="810.40,504.80 807.95,505.15 806.20,506.20 805.15,507.95 804.80,510.40"/>
    </edge>
    <edge id=":Int4_6" function="internal">
        <lane id=":Int4_6_0" index="0" speed="13.89" length="20.80" shape="810.40,504.80 789.60,504.80"/>
        <lane id=":Int4_6_1" index="1" speed="13.89" length="20.80" shape="810.40,501.60 789.60,501.60"/>
    </edge>
    <edge id=":Int4_8" function="internal">
        <lane id=":Int4_8_0" index="0" speed="9.26" length="5.01" shape="810.40,501.60 805.44,500.89"/>
    </edge>
    <edge id=":Int4_9" function="internal">
        <lane id=":Int4_9_0" index="0" speed="3.65" length="1.44" shape="810.40,501.60 809.20,500.80"/>
    </edge>
    <edge id=":Int4_22" function="internal">
        <lane id=":Int4_22_0" index="0" speed="9.26" length="14.34" shape="805.44,500.89 805.15,500.85 801.40,498.60 799.15,494.85 798.40,489.60"/>
    </edge>
    <edge id=":Int4_23" function="internal">
        <lane id=":Int4_23_0" index="0" speed="3.65" length="3.23" shape="809.20,500.80 808.80,500.00 809.20,499.20 810.40,498.40"/>
    </edge>
    <edge id=":Int4_10" function="internal">
        <lane id=":Int4_10_0" index="0" speed="6.51" length="9.03" shape="804.80,489.60 805.15,492.05 806.20,493.80 807.95,494.85 810.40,495.20"/>
    </edge>
    <edge id=":Int4_11" function="internal">
        <lane id=":Int4_11_0" index="0" speed="13.89" length="20.80" shape="804.80,489.60 804.80,510.40"/>
        <lane id=":Int4_11_1" index="1" speed="13.89" length="20.80" shape="801.60,489.60 801.60,510.40"/>
    </edge>
    <edge id=":Int4_13" function="internal">
        <lane id=":Int4_13_0" index="0" speed="9.26" length="5.01" shape="801.60,489.60 800.89,494.56"/>
    </edge>
    <edge id=":Int4_14" function="internal">
        <lane id=":Int4_14_0" index="0" speed="3.65" length="1.44" shape="801.60,489.60 800.80,490.80"/>
    </edge>
    <edge id=":Int4_24" function="internal">
        <lane id=":Int4_24_0" index="0" speed="9.26" length="14.34" shape="800.89,494.56 800.85,494.85 798.60,498.60 794.85,500.85 789.60,501.60"/>
    </edge>
    <edge id=":Int4_25" function="internal">
        <lane id=":Int4_25_0" index="0" speed="3.65" length="3.23" shape="800.80,490.80 800.00,491.20 799.20,490.80 798.40,489.60"/>
    </edge>
    <edge id=":Int4_15" function="internal">
        <lane id=":Int4_15_0" index="0" speed="6.51" length="9.03" shape="789.60,495.20 792.05,494.85 793.80,493.80 794.85,492.05 795.20,489.60"/>
    </edge>
    <edge id=":Int4_16" function="internal">
        <lane id=":Int4_16_0" index="0" speed="13.89" length="20.80" shape="789.60,495.20 810.40,495.20"/>
        <lane id=":Int4_16_1" index="1" speed="13.89" length="20.80" shape="789.60,498.40 810.40,498.40"/>
    </edge>
    <edge id=":Int4_18" function="internal">
        <lane id=":Int4_18_0" index="0" speed="9.26" length="5.01" shape="789.60,498.40 794.56,499.11"/>
    </edge>
    <edge id=":Int4_19" function="internal">
        <lane id=":Int4_19_0" index="0" speed="3.65" length="1.44" shape="789.60,498.40 790.80,499.20"/>
    </edge>
    <edge id=":Int4_26" function="internal">
        <lane id=":Int4_26_0" index="0" speed="9.26" length="14.34" shape="794.56,499.11 794.85,499.15 798.60,501.40 800.85,505.15 801.60,510.40"/>
    </edge>
    <edge id=":Int4_27" function="internal">
        <lane id=":Int4_27_0" index="0" speed="3.65" length="3.23" shape="790.80,499.20 791.20,500.00 790.80,500.80 789.60,501.60"/>
    </edge>
    <edge id=":Int4_E_0" function="internal">
        <lane id=":Int4_E_0_0" index="0" speed="3.65" length="4.67" shape="1000.00,498.40 1001.20,499.20 1001.60,500.00 1001.20,500.80 1000.00,501.60"/>
    </edge>
    <edge id=":Int4_N_0" function="internal">
        <lane id=":Int4_N_0_0" index="0" speed="3.65" length="4.67" shape="801.60,700.00 800.80,701.20 800.00,701.60 799.20,701.20 798.40,700.00"/>
    </edge>
    <edge id=":Int4_S_0" function="internal">
        <lane id=":Int4_S_0_0" index="0" speed="3.65" length="4.67" shape="798.40,300.00 799.20,298.80 800.00,298.40 800.80,298.80 801.60,300.00"/>
    </edge>
    <edge id=":Int5_0" function="internal">
        <lane id=":Int5_0_0" index="0" speed="6.51" length="9.03" shape="495.20,210.40 494.85,207.95 493.80,206.20 492.05,205.15 489.60,204.80"/>
    </edge>
    <edge id=":Int5_1" function="internal">
        <lane id=":Int5_1_0" index="0" speed="13.89" length="20.80" shape="495.20,210.40 495.20,189.60"/>
        <lane id=":Int5_1_1" index="1" speed="13.89" length="20.80" shape="498.40,210.40 498.40,189.60"/>
    </edge>
    <edge id=":Int5_3" function="internal">
        <lane id=":Int5_3_0" index="0" speed="9.26" length="5.01" shape="498.40,210.40 499.11,205.44"/>
    </edge>
    <edge id=":Int5_4" function="internal">
        <lane id=":Int5_4_0" index="0" speed="3.65" length="1.44" shape="498.40,210.40 499.20,209.20"/>
    </edge>
    <edge id=":Int5_20" function="internal">
        <lane id=":Int5_20_0" index="0" speed="9.26" length="14.34" shape="499.11,205.44 499.15,205.15 501.40,201.40 505.15,199.15 510.40,198.40"/>
    </edge>
    <edge id=":Int5_21" function="internal">
        <lane id=":Int5_21_0" index="0" speed="3.65" length="3.23" shape="499.20,209.20 500.00,208.80 500.80,209.20 501.60,210.40"/>
    </edge>
    <edge id=":Int5_5" function="internal">
        <lane id=":Int5_5_0" index="0" speed="6.51" length="9.03" shape="510.40,204.80 507.95,205.15 506.20,206.20 505.15,207.95 504.80,210.40"/>
    </edge>
    <edge id=":Int5_6" function="internal">
        <lane id=":Int5_6_0" index="0" speed="13.89" length="20.80" shape="510.40,204.80 489.60,204.80"/>
        <lane id=":Int5_6_1" index="1" speed="13.89" length="20.80" shape="510.40,201.60 489.60,201.60"/>
    </edge>
    <edge id=":Int5_8" function="internal">
        <lane id=":Int5_8_0" index="0" speed="9.26" length="5.01" shape="510.40,201.60 505.44,200.89"/>
    </edge>
    <edge id=":Int5_9" function="internal">
        <lane id=":Int5_9_0" index="0" speed="3.65" length="1.44" shape="510.40,201.60 509.20,200.80"/>
    </edge>
    <edge id=":Int5_22" function="internal">
        <lane id=":Int5_22_0" index="0" speed="9.26" length="14.34" shape="505.44,200.89 505.15,200.85 501.40,198.60 499.15,194.85 498.40,189.60"/>
    </edge>
    <edge id=":Int5_23" function="internal">
        <lane id=":Int5_23_0" index="0" speed="3.65" length="3.23" shape="509.20,200.80 508.80,200.00 509.20,199.20 510.40,198.40"/>
    </edge>
    <edge id=":Int5_10" function="internal">
        <lane id=":Int5_10_0" index="0" speed="6.51" length="9.03" shape="504.80,189.60 505.15,192.05 506.20,193.80 507.95,194.85 510.40,195.20"/>
    </edge>
    <edge id=":Int5_11" function="internal">
        <lane id=":Int5_11_0" index="0" speed="13.89" length="20.80" shape="504.80,189.60 504.80,210.40"/>
        <lane id=":Int5_11_1" index="1" speed="13.89" length="20.80" shape="501.60,189.60 501.60,210.40"/>
    </edge>
    <edge id=":Int5_13" function="internal">
        <lane id=":Int5_13_0" index="0" speed="9.26" length="5.01" shape="501.60,189.60 500.89,194.56"/>
    </edge>
    <edge id=":Int5_14" function="internal">
        <lane id=":Int5_14_0" index="0" speed="3.65" length="1.44" shape="501.60,189.60 500.80,190.80"/>
    </edge>
    <edge id=":Int5_24" function="internal">
        <lane id=":Int5_24_0" index="0" speed="9.26" length="14.34" shape="500.89,194.56 500.85,194.85 498.60,198.60 494.85,200.85 489.60,201.60"/>
    </edge>
    <edge id=":Int5_25" function="internal">
        <lane id=":Int5_25_0" index="0" speed="3.65" length="3.23" shape="500.80,190.80 500.00,191.20 499.20,190.80 498.40,189.60"/>
    </edge>
    <edge id=":Int5_15" function="internal">
        <lane id=":Int5_15_0" index="0" speed="6.51" length="9.03" shape="489.60,195.20 492.05,194.85 493.80,193.80 494.85,192.05 495.20,189.60"/>
    </edge>
    <edge id=":Int5_16" function="internal">
        <lane id=":Int5_16_0" index="0" speed="13.89" length="20.80" shape="489.60,195.20 510.40,195.20"/>
        <lane id=":Int5_16_1" index="1" speed="13.89" length="20.80" shape="489.60,198.40 510.40,198.40"/>
    </edge>
    <edge id=":Int5_18" function="internal">
        <lane id=":Int5_18_0" index="0" speed="9.26" length="5.01" shape="489.60,198.40 494.56,199.11"/>
    </edge>
    <edge id=":Int5_19" function="internal">
        <lane id=":Int5_19_0" index="0" speed="3.65" length="1.44" shape="489.60,198.40 490.80,199.20"/>
    </edge>
    <edge id=":Int5_26" function="internal">
        <lane id=":Int5_26_0" index="0" speed="9.26" length="14.34" shape="494.56,199.11 494.85,199.15 498.60,201.40 500.85,205.15 501.60,210.40"/>
    </edge>
    <edge id=":Int5_27" function="internal">
        <lane id=":Int5_27_0" index="0" speed="3.65" length="3.23" shape="490.80,199.20 491.20,200.00 490.80,200.80 489.60,201.60"/>
    </edge>
    <edge id=":Int5_E_0" function="internal">
        <lane id=":Int5_E_0_0" index="0" speed="3.65" length="4.67" shape="700.00,198.40 701.20,199.20 701.60,200.00 701.20,200.80 700.00,201.60"/>
    </edge>
    <edge id=":Int5_S_0" function="internal">
        <lane id=":Int5_S_0_0" index="0" speed="3.65" length="4.67" shape="498.40,0.00 499.20,-1.20 500.00,-1.60 500.80,-1.20 501.60,0.00"/>
    </edge>
    <edge id=":Int5_W_0" function="internal">
        <lane id=":Int5_W_0_0" index="0" speed="3.65" length="4.67" shape="300.00,201.60 298.80,200.80 298.40,200.00 298.80,199.20 300.00,198.40"/>
    </edge>

    <edge id="Int1_Int2" from="Int1" to="Int2" priority="-1">
        <lane id="Int1_Int2_0" index="0" speed="13.89" length="279.20" shape="504.80,510.40 504.80,789.60"/>
        <lane id="Int1_Int2_1" index="1" speed="13.89" length="279.20" shape="501.60,510.40 501.60,789.60"/>
    </edge>
    <edge id="Int1_Int3" from="Int1" to="Int3" priority="-1">
        <lane id="Int1_Int3_0" index="0" speed="13.89" length="279.20" shape="489.60,504.80 210.40,504.80"/>
        <lane id="Int1_Int3_1" index="1" speed="13.89" length="279.20" shape="489.60,501.60 210.40,501.60"/>
    </edge>
    <edge id="Int1_Int4" from="Int1" to="Int4" priority="-1">
        <lane id="Int1_Int4_0" index="0" speed="13.89" length="279.20" shape="510.40,495.20 789.60,495.20"/>
        <lane id="Int1_Int4_1" index="1" speed="13.89" length="279.20" shape="510.40,498.40 789.60,498.40"/>
    </edge>
    <edge id="Int1_Int5" from="Int1" to="Int5" priority="-1">
        <lane id="Int1_Int5_0" index="0" speed="13.89" length="279.20" shape="495.20,489.60 495.20,210.40"/>
        <lane id="Int1_Int5_1" index="1" speed="13.89" length="279.20" shape="498.40,489.60 498.40,210.40"/>
    </edge>
    <edge id="Int2_C2E" from="Int2" to="Int2_E" priority="-1">
        <lane id="Int2_C2E_0" index="0" speed="13.89" length="189.60" shape="510.40,795.20 700.00,795.20"/>
        <lane id="Int2_C2E_1" index="1" speed="13.89" length="189.60" shape="510.40,798.40 700.00,798.40"/>
    </edge>
    <edge id="Int2_C2N" from="Int2" to="Int2_N" priority="-1">
        <lane id="Int2_C2N_0" index="0" speed="13.89" length="189.60" shape="504.80,810.40 504.80,1000.00"/>
        <lane id="Int2_C2N_1" index="1" speed="13.89" length="189.60" shape="501.60,810.40 501.60,1000.00"/>
    </edge>
    <edge id="Int2_C2W" from="Int2" to="Int2_W" priority="-1">
        <lane id="Int2_C2W_0" index="0" speed="13.89" length="189.60" shape="489.60,804.80 300.00,804.80"/>
        <lane id="Int2_C2W_1" index="1" speed="13.89" length="189.60" shape="489.60,801.60 300.00,801.60"/>
    </edge>
    <edge id="Int2_E2C" from="Int2_E" to="Int2" priority="-1">
        <lane id="Int2_E2C_0" index="0" speed="13.89" length="189.60" shape="700.00,804.80 510.40,804.80"/>
        <lane id="Int2_E2C_1" index="1" speed="13.89" length="189.60" shape="700.00,801.60 510.40,801.60"/>
    </edge>
    <edge id="Int2_Int1" from="Int2" to="Int1" priority="-1">
        <lane id="Int2_Int1_0" index="0" speed="13.89" length="279.20" shape="495.20,789.60 495.20,510.40"/>
        <lane id="Int2_Int1_1" index="1" speed="13.89" length="279.20" shape="498.40,789.60 498.40,510.40"/>
    </edge>
    <edge id="Int2_N2C" from="Int2_N" to="Int2" priority="-1">
        <lane id="Int2_N2C_0" index="0" speed="13.89" length="189.60" shape="495.20,1000.00 495.20,810.40"/>