<?xml version="1.0" encoding="UTF-8"?>
<edges>
    <!-- Int1 to Int2 (North link) -->
    <edge id="Int1_Int2" from="Int1" to="Int2" numLanes="2" speed="13.89"/>
    <edge id="Int2_Int1" from="Int2" to="Int1" numLanes="2" speed="13.89"/>

    <!-- Int1 to Int3 (West link) -->
    <edge id="Int1_Int3" from="Int1" to="Int3" numLanes="2" speed="13.89"/>
    <edge id="Int3_Int1" from="Int3" to="Int1" numLanes="2" speed="13.89"/>

    <!-- Int1 to Int4 (East link) -->
    <edge id="Int1_Int4" from="Int1" to="Int4" numLanes="2" speed="13.89"/>
    <edge id="Int4_Int1" from="Int4" to="Int1" numLanes="2" speed="13.89"/>

    <!-- Int1 to Int5 (South link) -->
    <edge id="Int1_Int5" from="Int1" to="Int5" numLanes="2" speed="13.89"/>
    <edge id="Int5_Int1" from="Int5" to="Int1" numLanes="2" speed="13.89"/>

    <!-- Int2 external arms -->
    <edge id="Int2_N2C" from="Int2_N" to="Int2" numLanes="2" speed="13.89"/>
    <edge id="Int2_C2N" from="Int2" to="Int2_N" numLanes="2" speed="13.89"/>
    <edge id="Int2_W2C" from="Int2_W" to="Int2" numLanes="2" speed="13.89"/>
    <edge id="Int2_C2W" from="Int2" to="Int2_W" numLanes="2" speed="13.89"/>
    <edge id="Int2_E2C" from="Int2_E" to="Int2" numLanes="2" speed="13.89"/>
    <edge id="Int2_C2E" from="Int2" to="Int2_E" numLanes="2" speed="13.89"/>

    <!-- Int3 external arms -->
    <edge id="Int3_N2C" from="Int3_N" to="Int3" numLanes="2" speed="13.89"/>
    <edge id="Int3_C2N" from="Int3" to="Int3_N" numLanes="2" speed="13.89"/>
    <edge id="Int3_S2C" from="Int3_S" to="Int3" numLanes="2" speed="13.89"/>
    <edge id="Int3_C2S" from="Int3" to="Int3_S" numLanes="2" speed="13.89"/>
    <edge id="Int3_W2C" from="Int3_W" to="Int3" numLanes="2" speed="13.89"/>
    <edge id="Int3_C2W" from="Int3" to="Int3_W" numLanes="2" speed="13.89"/>

    <!-- Int4 external arms -->
    <edge id="Int4_N2C" from="Int4_N" to="Int4" numLanes="2" speed="13.89"/>
    <edge id="Int4_C2N" from="Int4" to="Int4_N" numLanes="2" speed="13.89"/>
    <edge id="Int4_S2C" from="Int4_S" to="Int4" numLanes="2" speed="13.89"/>
    <edge id="Int4_C2S" from="Int4" to="Int4_S" numLanes="2" speed="13.89"/>
    <edge id="Int4_E2C" from="Int4_E" to="Int4" numLanes="2" speed="13.89"/>
    <edge id="Int4_C2E" from="Int4" to="Int4_E" numLanes="2" speed="13.89"/>

    <!-- Int5 external arms -->
    <edge id="Int5_S2C" from="Int5_S" to="Int5" numLanes="2" speed="13.89"/>
    <edge id="Int5_C2S" from="Int5" to="Int5_S" numLanes="2" speed="13.89"/>
    <edge id="Int5_W2C" from="Int5_W" to="Int5" numLanes="2" speed="13.89"/>
    <edge id="Int5_C2W" from="Int5" to="Int5_W" numLanes="2" speed="13.89"/>
    <edge id="Int5_E2C" from="Int5_E" to="Int5" numLanes="2" speed="13.89"/>
    <edge id="Int5_C2E" from="Int5" to="Int5_E" numLanes="2" speed="13.89"/>
</edges>