<?xml version="1.0" encoding="UTF-8"?>

<!-- generated on 2026-05-18T10:10:59.709403+01:00 by Eclipse SUMO netconvert 1.25.0
<netconvertConfiguration xmlns:xsi="http://www.w3.org/2001/XMLSchema-instance" xsi:noNamespaceSchemaLocation="http://sumo.dlr.de/xsd/netconvertConfiguration.xsd">

    <input>
        <node-files value="networks\linked3\linked3.nod.xml"/>
        <edge-files value="networks\linked3\linked3.edg.xml"/>
    </input>

    <output>
        <output-file value="networks\linked3\linked3.net.xml"/>
    </output>

</netconvertConfiguration>
-->

<net version="1.20" junctionCornerDetail="5" limitTurnSpeed="5.50" xmlns:xsi="http://www.w3.org/2001/XMLSchema-instance" xsi:noNamespaceSchemaLocation="http://sumo.dlr.de/xsd/net_file.xsd">

    <location netOffset="580.00,550.00" convBoundary="0.00,0.00,1160.00,1050.00" origBoundary="-580.00,-550.00,580.00,500.00" projParameter="!"/>

    <edge id=":Int1_0" function="internal">
        <lane id=":Int1_0_0" index="0" speed="9.47" length="24.52" shape="595.33,572.12 588.72,566.55 583.14,564.11 578.58,564.78 575.06,568.58"/>
    </edge>
    <edge id=":Int1_1" function="internal">
        <lane id=":Int1_1_0" index="0" speed="13.89" length="35.96" shape="595.33,572.12 588.03,565.94 580.25,561.53 571.99,558.88 563.26,558.00"/>
        <lane id=":Int1_1_1" index="1" speed="13.89" length="38.47" shape="597.59,569.86 589.80,563.27 581.48,558.56 572.63,555.74 563.26,554.80"/>
    </edge>
    <edge id=":Int1_3" function="internal">
        <lane id=":Int1_3_0" index="0" speed="13.89" length="23.77" shape="597.59,569.86 589.51,559.74 585.10,549.86"/>
    </edge>
    <edge id=":Int1_4" function="internal">
        <lane id=":Int1_4_0" index="0" speed="13.89" length="20.39" shape="597.59,569.86 590.14,559.94 588.17,552.20"/>
    </edge>
    <edge id=":Int1_5" function="internal">
        <lane id=":Int1_5_0" index="0" speed="7.85" length="4.93" shape="597.59,569.86 595.19,565.55"/>
    </edge>
    <edge id=":Int1_6" function="internal">
        <lane id=":Int1_6_0" index="0" speed="3.65" length="1.44" shape="597.59,569.86 597.31,568.44"/>
    </edge>
    <edge id=":Int1_44" function="internal">
        <lane id=":Int1_44_0" index="0" speed="13.89" length="26.10" shape="585.10,549.86 584.59,548.74 582.85,536.85 584.28,524.07"/>
    </edge>
    <edge id=":Int1_45" function="internal">
        <lane id=":Int1_45_0" index="0" speed="13.89" length="24.69" shape="588.17,552.20 587.62,550.04 590.05,540.17 597.41,530.32"/>
    </edge>
    <edge id=":Int1_46" function="internal">
        <lane id=":Int1_46_0" index="0" speed="7.85" length="19.01" shape="595.19,565.55 594.36,564.08 594.77,558.31 598.28,554.22 604.38,553.50"/>
    </edge>
    <edge id=":Int1_47" function="internal">
        <lane id=":Int1_47_0" index="0" speed="3.65" length="3.23" shape="597.31,568.44 597.59,567.59 598.44,567.31 599.86,567.59"/>
    </edge>
    <edge id=":Int1_7" function="internal">
        <lane id=":Int1_7_0" index="0" speed="5.48" length="10.75" shape="602.40,562.89 598.80,562.46 597.18,563.10 597.53,564.81 599.86,567.59"/>
    </edge>
    <edge id=":Int1_8" function="internal">
        <lane id=":Int1_8_0" index="0" speed="12.93" length="29.74" shape="602.40,562.89 592.60,561.54 584.77,562.04 578.92,564.39 575.06,568.58"/>
    </edge>
    <edge id=":Int1_9" function="internal">
        <lane id=":Int1_9_0" index="0" speed="13.89" length="40.20" shape="602.40,562.89 592.20,560.82 582.95,559.29 573.64,558.33 563.26,558.00"/>
        <lane id=":Int1_9_1" index="1" speed="13.89" length="40.20" shape="603.06,559.76 592.76,557.68 583.28,556.12 573.74,555.14 563.26,554.80"/>
        <lane id=":Int1_9_2" index="2" speed="13.89" length="40.20" shape="603.72,556.63 593.32,554.54 583.61,552.96 573.84,551.95 563.26,551.60"/>
    </edge>
    <edge id=":Int1_12" function="internal">
        <lane id=":Int1_12_0" index="0" speed="13.58" length="4.43" shape="603.72,556.63 599.57,555.07"/>
    </edge>
    <edge id=":Int1_13" function="internal">
        <lane id=":Int1_13_0" index="0" speed="10.29" length="3.21" shape="603.72,556.63 600.79,555.31"/>
    </edge>
    <edge id=":Int1_14" function="internal">
        <lane id=":Int1_14_0" index="0" speed="3.65" length="1.44" shape="603.72,556.63 602.71,555.60"/>
    </edge>
    <edge id=":Int1_48" function="internal">
        <lane id=":Int1_48_0" index="0" speed="13.58" length="38.96" shape="599.57,555.07 592.89,552.57 586.04,545.79 583.17,536.29 584.28,524.07"/>
    </edge>
    <edge id=":Int1_49" function="internal">
        <lane id=":Int1_49_0" index="0" speed="10.29" length="31.59" shape="600.79,555.31 595.04,552.71 591.07,546.30 591.85,538.48 597.41,530.32"/>
    </edge>
    <edge id=":Int1_50" function="internal">
        <lane id=":Int1_50_0" index="0" speed="3.65" length="3.23" shape="602.71,555.60 602.49,554.73 603.04,554.03 604.38,553.50"/>
    </edge>
    <edge id=":Int1_15" function="internal">
        <lane id=":Int1_15_0" index="0" speed="7.58" length="18.18" shape="601.94,534.85 598.58,539.21 598.09,542.73 600.46,545.41 605.70,547.23"/>
    </edge>
    <edge id=":Int1_16" function="internal">
        <lane id=":Int1_16_0" index="0" speed="12.71" length="37.37" shape="601.94,534.85 595.28,543.43 592.71,551.74 594.24,559.80 599.86,567.59"/>
    </edge>
    <edge id=":Int1_17" function="internal">
        <lane id=":Int1_17_0" index="0" speed="13.89" length="43.63" shape="601.94,534.85 595.45,541.88 587.69,551.10 580.33,560.62 575.06,568.58"/>
        <lane id=":Int1_17_1" index="1" speed="13.89" length="43.63" shape="599.68,532.59 593.10,539.72 585.16,549.18 577.63,558.95 572.27,567.01"/>
    </edge>
    <edge id=":Int1_19" function="internal">
        <lane id=":Int1_19_0" index="0" speed="13.89" length="6.80" shape="599.68,532.59 594.58,537.09"/>
    </edge>
    <edge id=":Int1_20" function="internal">
        <lane id=":Int1_20_0" index="0" speed="7.80" length="2.20" shape="599.68,532.59 597.72,533.60"/>
    </edge>
    <edge id=":Int1_21" function="internal">
        <lane id=":Int1_21_0" index="0" speed="3.65" length="1.44" shape="599.68,532.59 598.26,532.87"/>
    </edge>
    <edge id=":Int1_51" function="internal">
        <lane id=":Int1_51_0" index="0" speed="13.89" length="35.28" shape="594.58,537.09 590.27,540.90 581.06,546.85 572.06,550.41 563.26,551.60"/>
    </edge>
    <edge id=":Int1_52" function="internal">
        <lane id=":Int1_52_0" index="0" speed="7.80" length="21.62" shape="597.72,533.60 594.05,535.51 588.57,534.49 584.80,530.40 584.28,524.07"/>
    </edge>
    <edge id=":Int1_53" function="internal">
        <lane id=":Int1_53_0" index="0" speed="3.65" length="3.23" shape="598.26,532.87 597.41,532.59 597.13,531.74 597.41,530.32"/>
    </edge>
    <edge id=":Int1_22" function="internal">
        <lane id=":Int1_22_0" index="0" speed="5.50" length="10.88" shape="590.52,525.50 590.01,529.15 590.62,530.80 592.33,530.43 595.15,528.06"/>
    </edge>
    <edge id=":Int1_23" function="internal">
        <lane id=":Int1_23_0" index="0" speed="11.41" length="30.33" shape="590.52,525.50 589.96,533.49 592.30,539.78 597.54,544.36 605.70,547.23"/>
    </edge>
    <edge id=":Int1_24" function="internal">
        <lane id=":Int1_24_0" index="0" speed="13.89" length="45.05" shape="590.52,525.50 588.82,538.13 589.81,549.36 593.49,559.18 599.86,567.59"/>
    </edge>
    <edge id=":Int1_25" function="internal">
        <lane id=":Int1_25_0" index="0" speed="13.89" length="45.38" shape="590.52,525.50 587.86,535.12 583.79,547.43 579.23,559.54 575.06,568.58"/>
        <lane id=":Int1_25_1" index="1" speed="13.89" length="45.38" shape="587.40,524.79 584.79,534.27 580.84,546.29 576.39,558.11 572.27,567.01"/>
    </edge>
    <edge id=":Int1_27" function="internal">
        <lane id=":Int1_27_0" index="0" speed="13.89" length="3.48" shape="587.40,524.79 586.33,528.10"/>
    </edge>
    <edge id=":Int1_28" function="internal">
        <lane id=":Int1_28_0" index="0" speed="3.65" length="1.33" shape="587.40,524.79 586.44,525.70"/>
    </edge>
    <edge id=":Int1_54" function="internal">
        <lane id=":Int1_54_0" index="0" speed="13.89" length="35.64" shape="586.33,528.10 583.60,536.52 578.30,544.90 571.52,549.92 563.26,551.60"/>
    </edge>
    <edge id=":Int1_55" function="internal">
        <lane id=":Int1_55_0" index="0" speed="3.65" length="3.35" shape="586.44,525.70 586.36,525.78 585.49,525.99 584.80,525.42 584.28,524.07"/>
    </edge>
    <edge id=":Int1_29" function="internal">
        <lane id=":Int1_29_0" index="0" speed="12.12" length="28.10" shape="563.26,542.00 569.49,540.84 574.56,537.34 578.45,531.52 581.16,523.36"/>
    </edge>
    <edge id=":Int1_30" function="internal">
        <lane id=":Int1_30_0" index="0" speed="13.89" length="35.75" shape="563.26,542.00 573.57,540.82 582.18,537.68 589.29,533.22 595.15,528.06"/>
    </edge>
    <edge id=":Int1_31" function="internal">
        <lane id=":Int1_31_0" index="0" speed="13.89" length="42.18" shape="563.26,542.00 574.15,542.38 584.60,543.46 594.98,545.11 605.70,547.23"/>
        <lane id=":Int1_31_1" index="1" speed="13.89" length="42.18" shape="563.26,545.20 574.05,545.57 584.27,546.62 594.43,548.26 605.04,550.37"/>
        <lane id=":Int1_31_2" index="2" speed="13.89" length="42.18" shape="563.26,548.40 573.95,548.76 583.94,549.79 593.87,551.40 604.38,553.50"/>
    </edge>
    <edge id=":Int1_34" function="internal">
        <lane id=":Int1_34_0" index="0" speed="13.89" length="6.90" shape="563.26,548.40 570.09,549.33"/>
    </edge>
    <edge id=":Int1_35" function="internal">
        <lane id=":Int1_35_0" index="0" speed="9.17" length="4.06" shape="563.26,548.40 567.22,549.24"/>
    </edge>
    <edge id=":Int1_36" function="internal">
        <lane id=":Int1_36_0" index="0" speed="3.65" length="1.44" shape="563.26,548.40 564.46,549.20"/>
    </edge>
    <edge id=":Int1_56" function="internal">
        <lane id=":Int1_56_0" index="0" speed="13.89" length="35.43" shape="570.09,549.33 572.07,549.60 581.11,553.20 590.37,559.20 599.86,567.59"/>
    </edge>
    <edge id=":Int1_57" function="internal">
        <lane id=":Int1_57_0" index="0" speed="9.17" length="22.31" shape="567.22,549.24 570.30,549.90 574.18,553.95 574.85,559.88 572.27,567.01"/>
    </edge>
    <edge id=":Int1_58" function="internal">
        <lane id=":Int1_58_0" index="0" speed="3.65" length="3.23" shape="564.46,549.20 564.86,550.00 564.46,550.80 563.26,551.60"/>
    </edge>
    <edge id=":Int1_37" function="internal">
        <lane id=":Int1_37_0" index="0" speed="5.68" length="9.23" shape="566.69,563.87 567.71,561.30 567.48,559.47 566.00,558.37 563.26,558.00"/>
    </edge>
    <edge id=":Int1_38" function="internal">
        <lane id=":Int1_38_0" index="0" speed="13.89" length="43.09" shape="566.69,563.87 570.71,555.24 574.93,544.00 578.65,532.58 581.16,523.36"/>
    </edge>
    <edge id=":Int1_39" function="internal">
        <lane id=":Int1_39_0" index="0" speed="13.89" length="45.37" shape="566.69,563.87 572.21,555.59 580.11,545.35 588.41,535.41 595.15,528.06"/>
        <lane id=":Int1_39_1" index="1" speed="13.89" length="45.37" shape="569.48,565.44 574.92,557.27 582.63,547.26 590.76,537.57 597.41,530.32"/>
    </edge>
    <edge id=":Int1_41" function="internal">
        <lane id=":Int1_41_0" index="0" speed="13.89" length="7.54" shape="569.48,565.44 574.21,559.57"/>
    </edge>
    <edge id=":Int1_42" function="internal">
        <lane id=":Int1_42_0" index="0" speed="11.61" length="5.47" shape="569.48,565.44 573.06,561.31"/>
    </edge>
    <edge id=":Int1_43" function="internal">
        <lane id=":Int1_43_0" index="0" speed="3.65" length="1.44" shape="569.48,565.44 570.77,564.79"/>
    </edge>
    <edge id=":Int1_59" function="internal">
        <lane id=":Int1_59_0" index="0" speed="13.89" length="32.16" shape="574.21,559.57 575.30,558.23 583.06,553.83 592.75,552.25 604.38,553.50"/>
    </edge>
    <edge id=":Int1_60" function="internal">
        <lane id=":Int1_60_0" index="0" speed="11.61" length="32.06" shape="573.06,561.31 576.04,557.87 583.29,556.50 591.23,560.14 599.86,567.59"/>
    </edge>
    <edge id=":Int1_61" function="internal">
        <lane id=":Int1_61_0" index="0" speed="3.65" length="3.23" shape="570.77,564.79 571.66,564.83 572.16,565.57 572.27,567.01"/>
    </edge>
    <edge id=":Int2_0" function="internal">
        <lane id=":Int2_0_0" index="0" speed="6.51" length="9.03" shape="395.20,877.20 394.85,874.75 393.80,873.00 392.05,871.95 389.60,871.60"/>
    </edge>
    <edge id=":Int2_1" function="internal">
        <lane id=":Int2_1_0" index="0" speed="13.89" length="19.91" shape="395.20,877.20 395.47,871.18 396.43,867.03 398.31,863.12 401.34,857.82"/>
        <lane id=":Int2_1_1" index="1" speed="13.89" length="19.91" shape="398.40,877.20 398.65,871.62 399.55,867.85 401.30,864.30 404.13,859.39"/>
    </edge>
    <edge id=":Int2_3" function="internal">
        <lane id=":Int2_3_0" index="0" speed="9.23" length="3.74" shape="398.40,877.20 399.27,873.57"/>
    </edge>
    <edge id=":Int2_4" function="internal">
        <lane id=":Int2_4_0" index="0" speed="3.65" length="1.44" shape="398.40,877.20 399.20,876.00"/>
    </edge>
    <edge id=":Int2_18" function="internal">
        <lane id=":Int2_18_0" index="0" speed="9.23" length="15.49" shape="399.27,873.57 399.32,873.35 402.09,870.60 406.69,868.95 413.14,868.40"/>
    </edge>
    <edge id=":Int2_19" function="internal">
        <lane id=":Int2_19_0" index="0" speed="3.65" length="3.23" shape="399.20,876.00 400.00,875.60 400.80,876.00 401.60,877.20"/>
    </edge>
    <edge id=":Int2_5" function="internal">
        <lane id=":Int2_5_0" index="0" speed="7.21" length="11.33" shape="413.14,871.60 409.49,871.95 406.89,873.00 405.32,874.75 404.80,877.20"/>
    </edge>
    <edge id=":Int2_6" function="internal">
        <lane id=":Int2_6_0" index="0" speed="13.89" length="23.54" shape="413.14,871.60 389.60,871.60"/>
    </edge>
    <edge id=":Int2_7" function="internal">
        <lane id=":Int2_7_0" index="0" speed="8.14" length="6.07" shape="413.14,871.60 407.11,870.89"/>
    </edge>
    <edge id=":Int2_8" function="internal">
        <lane id=":Int2_8_0" index="0" speed="3.65" length="1.44" shape="413.14,871.60 411.94,870.80"/>
    </edge>
    <edge id=":Int2_20" function="internal">
        <lane id=":Int2_20_0" index="0" speed="8.14" length="14.43" shape="407.11,870.89 406.63,870.84 402.95,868.55 402.12,864.73 404.13,859.39"/>
    </edge>
    <edge id=":Int2_21" function="internal">
        <lane id=":Int2_21_0" index="0" speed="3.65" length="3.23" shape="411.94,870.80 411.54,870.00 411.94,869.20 413.14,868.40"/>
    </edge>
    <edge id=":Int2_9" function="internal">
        <lane id=":Int2_9_0" index="0" speed="5.68" length="9.23" shape="409.71,862.53 408.69,865.10 408.92,866.93 410.40,868.03 413.14,868.40"/>
    </edge>
    <edge id=":Int2_10" function="internal">
        <lane id=":Int2_10_0" index="0" speed="13.89" length="16.61" shape="409.71,862.53 407.34,866.58 405.83,869.49 405.03,872.59 404.80,877.20"/>
        <lane id=":Int2_10_1" index="1" speed="13.89" length="16.61" shape="406.92,860.96 404.32,865.44 402.69,868.67 401.84,872.11 401.60,877.20"/>
    </edge>
    <edge id=":Int2_12" function="internal">
        <lane id=":Int2_12_0" index="0" speed="12.33" length="6.02" shape="406.92,860.96 403.59,865.62 403.36,865.81"/>
    </edge>
    <edge id=":Int2_13" function="internal">
        <lane id=":Int2_13_0" index="0" speed="3.65" length="1.44" shape="406.92,860.96 405.63,861.61"/>
    </edge>
    <edge id=":Int2_22" function="internal">
        <lane id=":Int2_22_0" index="0" speed="12.33" length="15.35" shape="403.36,865.81 399.60,868.94 394.93,870.94 389.60,871.60"/>
    </edge>
    <edge id=":Int2_23" function="internal">
        <lane id=":Int2_23_0" index="0" speed="3.65" length="3.23" shape="405.63,861.61 404.74,861.57 404.24,860.83 404.13,859.39"/>
    </edge>
    <edge id=":Int2_14" function="internal">
        <lane id=":Int2_14_0" index="0" speed="10.86" length="16.44" shape="389.60,868.40 392.51,867.74 395.43,865.76 398.38,862.45 401.34,857.82"/>
    </edge>
    <edge id=":Int2_15" function="internal">
        <lane id=":Int2_15_0" index="0" speed="13.89" length="23.54" shape="389.60,868.40 413.14,868.40"/>
    </edge>
    <edge id=":Int2_16" function="internal">
        <lane id=":Int2_16_0" index="0" speed="8.67" length="5.56" shape="389.60,868.40 394.85,868.95 395.11,869.06"/>
    </edge>
    <edge id=":Int2_17" function="internal">
        <lane id=":Int2_17_0" index="0" speed="3.65" length="1.44" shape="389.60,868.40 390.80,869.20"/>
    </edge>
    <edge id=":Int2_24" function="internal">
        <lane id=":Int2_24_0" index="0" speed="8.67" length="11.29" shape="395.11,869.06 398.60,870.60 400.85,873.35 401.60,877.20"/>
    </edge>
    <edge id=":Int2_25" function="internal">
        <lane id=":Int2_25_0" index="0" speed="3.65" length="3.23" shape="390.80,869.20 391.20,870.00 390.80,870.80 389.60,871.60"/>
    </edge>
    <edge id=":Int2_E_0" function="internal">
        <lane id=":Int2_E_0_0" index="0" speed="3.65" length="4.67" shape="600.00,868.40 601.20,869.20 601.60,870.00 601.20,870.80 600.00,871.60"/>
    </edge>
    <edge id=":Int2_N_0" function="internal">
        <lane id=":Int2_N_0_0" index="0" speed="3.65" length="4.67" shape="401.60,1050.00 400.80,1051.20 400.00,1051.60 399.20,1051.20 398.40,1050.00"/>
    </edge>
    <edge id=":Int2_W_0" function="internal">
        <lane id=":Int2_W_0_0" index="0" speed="3.65" length="4.67" shape="200.00,871.60 198.80,870.80 198.40,870.00 198.80,869.20 200.00,868.40"/>
    </edge>
    <edge id=":Int3_0" function="internal">
        <lane id=":Int3_0_0" index="0" speed="5.98" length="12.11" shape="195.20,565.51 194.71,562.51 193.24,561.56 190.80,562.65 187.38,565.80"/>
    </edge>
    <edge id=":Int3_1" function="internal">
        <lane id=":Int3_1_0" index="0" speed="9.13" length="18.81" shape="195.20,565.51 194.41,560.82 192.05,557.48 188.12,555.47 182.61,554.80"/>
    </edge>
    <edge id=":Int3_2" function="internal">
        <lane id=":Int3_2_0" index="0" speed="13.89" length="29.11" shape="195.20,565.51 195.20,536.40"/>
        <lane id=":Int3_2_1" index="1" speed="13.89" length="29.11" shape="198.40,565.51 198.40,536.40"/>
    </edge>
    <edge id=":Int3_4" function="internal">
        <lane id=":Int3_4_0" index="0" speed="10.18" length="7.06" shape="198.40,565.51 199.10,558.48"/>
    </edge>
    <edge id=":Int3_5" function="internal">
        <lane id=":Int3_5_0" index="0" speed="3.65" length="1.44" shape="198.40,565.51 199.20,564.31"/>
    </edge>
    <edge id=":Int3_31" function="internal">
        <lane id=":Int3_31_0" index="0" speed="10.18" length="16.55" shape="199.10,558.48 199.15,558.02 201.40,552.68 205.15,549.47 210.40,548.40"/>
    </edge>
    <edge id=":Int3_32" function="internal">
        <lane id=":Int3_32_0" index="0" speed="3.65" length="3.23" shape="199.20,564.31 200.00,563.91 200.80,564.31 201.60,565.51"/>
    </edge>
    <edge id=":Int3_6" function="internal">
        <lane id=":Int3_6_0" index="0" speed="7.00" length="10.61" shape="210.40,558.00 207.95,558.47 206.20,559.88 205.15,562.22 204.80,565.51"/>
    </edge>
    <edge id=":Int3_7" function="internal">
        <lane id=":Int3_7_0" index="0" speed="13.89" length="24.96" shape="210.40,558.00 203.07,558.49 196.79,559.95 191.56,562.39 187.38,565.80"/>
    </edge>
    <edge id=":Int3_8" function="internal">
        <lane id=":Int3_8_0" index="0" speed="13.89" length="27.79" shape="210.40,558.00 182.61,558.00"/>
        <lane id=":Int3_8_1" index="1" speed="13.89" length="27.79" shape="210.40,554.80 182.61,554.80"/>
        <lane id=":Int3_8_2" index="2" speed="13.89" length="27.79" shape="210.40,551.60 182.61,551.60"/>
    </edge>
    <edge id=":Int3_11" function="internal">
        <lane id=":Int3_11_0" index="0" speed="9.84" length="4.01" shape="210.40,551.60 206.45,550.89"/>
    </edge>
    <edge id=":Int3_12" function="internal">
        <lane id=":Int3_12_0" index="0" speed="3.65" length="1.44" shape="210.40,551.60 209.20,550.80"/>
    </edge>
    <edge id=":Int3_33" function="internal">
        <lane id=":Int3_33_0" index="0" speed="9.84" length="17.98" shape="206.45,550.89 205.15,550.65 201.40,547.80 199.15,543.05 198.40,536.40"/>
    </edge>
    <edge id=":Int3_34" function="internal">
        <lane id=":Int3_34_0" index="0" speed="3.65" length="3.23" shape="209.20,550.80 208.80,550.00 209.20,549.20 210.40,548.40"/>
    </edge>
    <edge id=":Int3_13" function="internal">
        <lane id=":Int3_13_0" index="0" speed="6.51" length="9.03" shape="204.80,536.40 205.15,538.85 206.20,540.60 207.95,541.65 210.40,542.00"/>
    </edge>
    <edge id=":Int3_14" function="internal">
        <lane id=":Int3_14_0" index="0" speed="13.89" length="29.11" shape="204.80,536.40 204.80,565.51"/>
        <lane id=":Int3_14_1" index="1" speed="13.89" length="29.11" shape="201.60,536.40 201.60,565.51"/>
    </edge>
    <edge id=":Int3_16" function="internal">
        <lane id=":Int3_16_0" index="0" speed="13.89" length="3.50" shape="201.60,536.40 200.88,539.83"/>
    </edge>
    <edge id=":Int3_17" function="internal">
        <lane id=":Int3_17_0" index="0" speed="10.98" length="4.06" shape="201.60,536.40 200.89,540.40"/>
    </edge>
    <edge id=":Int3_18" function="internal">
        <lane id=":Int3_18_0" index="0" speed="3.65" length="1.44" shape="201.60,536.40 200.80,537.60"/>
    </edge>
    <edge id=":Int3_35" function="internal">
        <lane id=":Int3_35_0" index="0" speed="13.89" length="29.59" shape="200.88,539.83 199.86,544.70 195.77,553.48 191.04,561.07 187.38,565.80"/>
    </edge>
    <edge id=":Int3_36" function="internal">
        <lane id=":Int3_36_0" index="0" speed="10.98" length="23.57" shape="200.89,540.40 200.41,543.05 196.85,547.80 190.92,550.65 182.61,551.60"/>
    </edge>
    <edge id=":Int3_37" function="internal">
        <lane id=":Int3_37_0" index="0" speed="3.65" length="3.23" shape="200.80,537.60 200.00,538.00 199.20,537.60 198.40,536.40"/>
    </edge>
    <edge id=":Int3_19" function="internal">
        <lane id=":Int3_19_0" index="0" speed="8.24" length="15.10" shape="182.61,542.00 188.12,541.65 192.05,540.60 194.41,538.85 195.20,536.40"/>
    </edge>
    <edge id=":Int3_20" function="internal">
        <lane id=":Int3_20_0" index="0" speed="13.89" length="27.79" shape="182.61,542.00 210.40,542.00"/>
        <lane id=":Int3_20_1" index="1" speed="13.89" length="27.79" shape="182.61,545.20 210.40,545.20"/>
        <lane id=":Int3_20_2" index="2" speed="13.89" length="27.79" shape="182.61,548.40 210.40,548.40"/>
    </edge>
    <edge id=":Int3_23" function="internal">
        <lane id=":Int3_23_0" index="0" speed="11.26" length="5.54" shape="182.61,548.40 188.11,549.11"/>
    </edge>
    <edge id=":Int3_24" function="internal">
        <lane id=":Int3_24_0" index="0" speed="8.23" length="2.68" shape="182.61,548.40 185.19,549.13"/>
    </edge>
    <edge id=":Int3_25" function="internal">
        <lane id=":Int3_25_0" index="0" speed="3.65" length="1.44" shape="182.61,548.40 183.81,549.20"/>
    </edge>
    <edge id=":Int3_38" function="internal">
        <lane id=":Int3_38_0" index="0" speed="11.26" length="23.58" shape="188.11,549.11 190.92,549.47 196.85,552.68 200.41,558.02 201.60,565.51"/>
    </edge>
    <edge id=":Int3_39" function="internal">
        <lane id=":Int3_39_0" index="0" speed="8.23" length="21.04" shape="185.19,549.13 188.55,550.09 191.33,554.36 190.94,560.00 187.38,565.80"/>
    </edge>
    <edge id=":Int3_40" function="internal">
        <lane id=":Int3_40_0" index="0" speed="3.65" length="3.23" shape="183.81,549.20 184.21,550.00 183.81,550.80 182.61,551.60"/>
    </edge>
    <edge id=":Int3_26" function="internal">
        <lane id=":Int3_26_0" index="0" speed="5.49" length="9.65" shape="185.05,563.61 186.87,561.16 187.07,559.40 185.65,558.35 182.61,558.00"/>
    </edge>
    <edge id=":Int3_27" function="internal">
        <lane id=":Int3_27_0" index="0" speed="13.89" length="29.44" shape="185.05,563.61 188.07,559.23 191.40,552.39 194.09,544.36 195.20,536.40"/>
    </edge>
    <edge id=":Int3_28" function="internal">
        <lane id=":Int3_28_0" index="0" speed="13.89" length="31.87" shape="185.05,563.61 193.10,555.56 200.01,549.80 205.78,546.35 210.40,545.20"/>
    </edge>
    <edge id=":Int3_29" function="internal">
        <lane id=":Int3_29_0" index="0" speed="7.84" length="22.04" shape="185.05,563.61 190.30,559.76 195.70,558.56 199.90,560.35 201.60,565.51"/>
    </edge>
    <edge id=":Int3_30" function="internal">
        <lane id=":Int3_30_0" index="0" speed="3.65" length="1.44" shape="185.05,563.61 186.45,563.28"/>
    </edge>
    <edge id=":Int3_41" function="internal">
        <lane id=":Int3_41_0" index="0" speed="3.65" length="3.23" shape="186.45,563.28 187.31,563.54 187.62,564.38 187.38,565.80"/>
    </edge>
    <edge id=":Int3_N_0" function="internal">
        <lane id=":Int3_N_0_0" index="0" speed="3.65" length="4.67" shape="201.60,750.00 200.80,751.20 200.00,751.60 199.20,751.20 198.40,750.00"/>
    </edge>
    <edge id=":Int3_NW_0" function="internal">
        <lane id=":Int3_NW_0_0" index="0" speed="3.65" length="4.67" shape="51.17,711.09 49.76,711.42 48.91,711.17 48.60,710.33 48.83,708.91"/>
    </edge>
    <edge id=":Int3_S_0" function="internal">
        <lane id=":Int3_S_0_0" index="0" speed="3.65" length="4.67" shape="198.40,350.00 199.20,348.80 200.00,348.40 200.80,348.80 201.60,350.00"/>
    </edge>
    <edge id=":Int3_W_0" function="internal">
        <lane id=":Int3_W_0_0" index="0" speed="3.65" length="4.67" shape="0.00,551.60 -1.20,550.80 -1.60,550.00 -1.20,549.20 0.00,548.40"/>
    </edge>
    <edge id=":Int4_0" function="internal">
        <lane id=":Int4_0_0" index="0" speed="9.17" length="15.94" shape="958.40,643.60 957.63,640.92 955.32,638.63 951.46,636.74 946.06,635.24"/>
    </edge>
    <edge id=":Int4_1" function="internal">
        <lane id=":Int4_1_0" index="0" speed="13.89" length="28.86" shape="958.40,643.60 957.90,638.40 956.80,631.10 955.70,622.85 955.20,614.84"/>
        <lane id=":Int4_1_1" index="1" speed="13.89" length="28.86" shape="958.40,643.60 958.40,614.84"/>
    </edge>
    <edge id=":Int4_3" function="internal">
        <lane id=":Int4_3_0" index="0" speed="9.84" length="8.72" shape="958.40,643.60 959.15,636.95 960.02,635.12"/>
    </edge>
    <edge id=":Int4_4" function="internal">
        <lane id=":Int4_4_0" index="0" speed="3.65" length="1.44" shape="958.40,643.60 959.20,642.40"/>
    </edge>
    <edge id=":Int4_21" function="internal">
        <lane id=":Int4_21_0" index="0" speed="9.84" length="13.27" shape="960.02,635.12 961.40,632.20 965.15,629.35 970.40,628.40"/>
    </edge>
    <edge id=":Int4_22" function="internal">
        <lane id=":Int4_22_0" index="0" speed="3.65" length="3.23" shape="959.20,642.40 960.00,642.00 960.80,642.40 961.60,643.60"/>
    </edge>
    <edge id=":Int4_5" function="internal">
        <lane id=":Int4_5_0" index="0" speed="7.33" length="11.73" shape="970.40,638.00 966.55,638.35 963.80,639.40 962.15,641.15 961.60,643.60"/>
    </edge>
    <edge id=":Int4_6" function="internal">
        <lane id=":Int4_6_0" index="0" speed="13.89" length="23.91" shape="970.40,638.00 963.12,637.92 958.13,637.57 953.20,636.74 946.06,635.24"/>
        <lane id=":Int4_6_1" index="1" speed="13.89" length="23.91" shape="970.40,634.80 963.31,634.72 958.46,634.38 953.66,633.57 946.72,632.11"/>
        <lane id=":Int4_6_2" index="2" speed="13.89" length="23.91" shape="970.40,631.60 963.51,631.53 958.80,631.18 954.13,630.39 947.38,628.98"/>
    </edge>
    <edge id=":Int4_9" function="internal">
        <lane id=":Int4_9_0" index="0" speed="10.12" length="3.87" shape="970.40,631.60 966.61,630.84"/>
    </edge>
    <edge id=":Int4_10" function="internal">
        <lane id=":Int4_10_0" index="0" speed="3.65" length="1.44" shape="970.40,631.60 969.20,630.80"/>
    </edge>
    <edge id=":Int4_23" function="internal">
        <lane id=":Int4_23_0" index="0" speed="10.12" length="19.45" shape="966.61,630.84 965.15,630.55 961.40,627.41 959.15,622.17 958.40,614.84"/>
    </edge>
    <edge id=":Int4_24" function="internal">
        <lane id=":Int4_24_0" index="0" speed="3.65" length="3.23" shape="969.20,630.80 968.80,630.00 969.20,629.20 970.40,628.40"/>
    </edge>
    <edge id=":Int4_11" function="internal">
        <lane id=":Int4_11_0" index="0" speed="6.91" length="10.32" shape="964.80,614.84 965.15,617.97 966.20,620.21 967.95,621.55 970.40,622.00"/>
    </edge>
    <edge id=":Int4_12" function="internal">
        <lane id=":Int4_12_0" index="0" speed="13.89" length="28.95" shape="964.80,614.84 964.30,622.85 963.20,631.10 962.10,638.40 961.60,643.60"/>
    </edge>
    <edge id=":Int4_13" function="internal">
        <lane id=":Int4_13_0" index="0" speed="9.57" length="5.85" shape="961.60,614.84 960.89,620.65"/>
    </edge>
    <edge id=":Int4_14" function="internal">
        <lane id=":Int4_14_0" index="0" speed="3.65" length="1.44" shape="961.60,614.84 960.80,616.04"/>
    </edge>
    <edge id=":Int4_25" function="internal">
        <lane id=":Int4_25_0" index="0" speed="9.57" length="18.21" shape="960.89,620.65 960.71,622.15 958.04,626.94 953.60,629.22 947.38,628.98"/>
    </edge>
    <edge id=":Int4_26" function="internal">
        <lane id=":Int4_26_0" index="0" speed="3.65" length="3.23" shape="960.80,616.04 960.00,616.44 959.20,616.04 958.40,614.84"/>
    </edge>
    <edge id=":Int4_15" function="internal">
        <lane id=":Int4_15_0" index="0" speed="6.10" length="9.06" shape="949.36,619.58 951.91,619.75 953.74,619.01 954.83,617.38 955.20,614.84"/>
    </edge>
    <edge id=":Int4_16" function="internal">
        <lane id=":Int4_16_0" index="0" speed="13.89" length="21.92" shape="949.36,619.58 955.53,620.88 959.79,621.61 964.10,621.93 970.40,622.00"/>