<?xml version="1.0" encoding="UTF-8"?>
<nodes>
    <node id="Int1" x="0"    y="0"    type="traffic_light"/>
    <node id="Int2" x="-180" y="320"  type="traffic_light"/>
    <node id="Int3" x="-380" y="0"    type="traffic_light"/>
    <node id="Int4" x="380"  y="80"   type="traffic_light"/>
    <node id="Int5" x="80"   y="-350" type="traffic_light"/>
    <node id="Int6" x="260"  y="-260" type="traffic_light"/>
    <node id="Int7" x="300"  y="300"  type="traffic_light"/>
    <node id="Int2_N" x="-180" y="500"  type="dead_end"/>
    <node id="Int2_W" x="-380" y="320"  type="dead_end"/>
    <node id="Int2_E" x="20"   y="320"  type="dead_end"/>
    <node id="Int3_N"  x="-380" y="200"  type="dead_end"/>
    <node id="Int3_W"  x="-580" y="0"    type="dead_end"/>
    <node id="Int3_S"  x="-380" y="-200" type="dead_end"/>
    <node id="Int3_NW" x="-530" y="160"  type="dead_end"/>
    <node id="Int4_N" x="380"  y="280"  type="dead_end"/>
    <node id="Int4_E" x="580"  y="80"   type="dead_end"/>
    <node id="Int4_S" x="380"  y="-120" type="dead_end"/>
    <node id="Int5_S" x="80"   y="-550" type="dead_end"/>
    <node id="Int5_W" x="-120" y="-350" type="dead_end"/>
    <node id="Int6_E" x="460"  y="-260" type="dead_end"/>
    <node id="Int6_S" x="260"  y="-460" type="dead_end"/>
    <node id="Int7_N" x="300"  y="480"  type="dead_end"/>
    <node id="Int7_E" x="500"  y="300"  type="dead_end"/>
</nodes>