<?xml version="1.0" encoding="UTF-8"?>
<routes xmlns:xsi="http://www.w3.org/2001/XMLSchema-instance" xsi:noNamespaceSchemaLocation="http://sumo.dlr.de/xsd/routes_file.xsd">
    <vType id="car" accel="2.6" decel="4.5" sigma="0.5" length="5" maxSpeed="16.67"/>
    <vType id="emergency" accel="3.0" decel="6.0" sigma="0.0" length="5" maxSpeed="16.67" color="1,0,0"/>
    <route id="EW"  edges="E2C C2W"/>
    <route id="WE"  edges="W2C C2E"/>
    <route id="NS"  edges="N2C C2S"/>
    <route id="SN"  edges="S2C C2N"/>
    <route id="EN"  edges="E2C C2N"/>
    <route id="ES"  edges="E2C C2S"/>
    <route id="WN"  edges="W2C C2N"/>
    <route id="WS"  edges="W2C C2S"/>
    <route id="NE"  edges="N2C C2E"/>
    <route id="NW"  edges="N2C C2W"/>
    <route id="SE"  edges="S2C C2E"/>
    <route id="SW"  edges="S2C C2W"/>
    <!-- Heavy major road flows -->
    <flow id="flow_EW"  type="car" route="EW"  begin="0" end="999999" vehsPerHour="300"/>
    <flow id="flow_WE"  type="car" route="WE"  begin="0" end="999999" vehsPerHour="300"/>
    <!-- Light minor road flows -->
    <flow id="flow_NS"  type="car" route="NS"  begin="0" end="999999" vehsPerHour="40"/>
    <flow id="flow_SN"  type="car" route="SN"  begin="0" end="999999" vehsPerHour="40"/>
    <!-- Turn flows -->
    <flow id="flow_EN"  type="car" route="EN"  begin="0" end="999999" vehsPerHour="50"/>
    <flow id="flow_ES"  type="car" route="ES"  begin="0" end="999999" vehsPerHour="50"/>
    <flow id="flow_WN"  type="car" route="WN"  begin="0" end="999999" vehsPerHour="50"/>
    <flow id="flow_WS"  type="car" route="WS"  begin="0" end="999999" vehsPerHour="50"/>
    <flow id="flow_NE"  type="car" route="NE"  begin="0" end="999999" vehsPerHour="20"/>
    <flow id="flow_NW"  type="car" route="NW"  begin="0" end="999999" vehsPerHour="20"/>
    <flow id="flow_SE"  type="car" route="SE"  begin="0" end="999999" vehsPerHour="20"/>
    <flow id="flow_SW"  type="car" route="SW"  begin="0" end="999999" vehsPerHour="20"/>
    <flow id="flow_EV_EW" type="emergency" route="EW" begin="200" end="999999" vehsPerHour="2"/>
    <flow id="flow_EV_NS" type="emergency" route="NS" begin="500" end="999999" vehsPerHour="1"/>
</routes>