<?xml version="1.0" encoding="UTF-8"?>

<!-- generated on 2026-06-06T22:26:08.445383+01:00 by Eclipse SUMO netconvert 1.25.0
<netconvertConfiguration xmlns:xsi="http://www.w3.org/2001/XMLSchema-instance" xsi:noNamespaceSchemaLocation="http://sumo.dlr.de/xsd/netconvertConfiguration.xsd">

    <input>
        <node-files value="networks\intersection11\intersection11.nod.xml"/>
        <edge-files value="networks\intersection11\intersection11.edg.xml"/>
    </input>

    <output>
        <output-file value="networks\intersection11\intersection11.net.xml"/>
    </output>

</netconvertConfiguration>
-->

<net version="1.20" junctionCornerDetail="5" limitTurnSpeed="5.50" xmlns:xsi="http://www.w3.org/2001/XMLSchema-instance" xsi:noNamespaceSchemaLocation="http://sumo.dlr.de/xsd/net_file.xsd">

    <location netOffset="150.00,150.00" convBoundary="0.00,0.00,300.00,300.00" origBoundary="-150.00,-150.00,150.00,150.00" projParameter="!"/>

    <edge id=":C_0" function="internal">
        <lane id=":C_0_0" index="0" speed="6.51" length="9.03" shape="148.40,166.80 148.05,164.35 147.00,162.60 145.25,161.55 142.80,161.20"/>
    </edge>
    <edge id=":C_1" function="internal">
        <lane id=":C_1_0" index="0" speed="8.33" length="33.60" shape="148.40,166.80 148.40,133.20"/>
    </edge>
    <edge id=":C_2" function="internal">
        <lane id=":C_2_0" index="0" speed="9.94" length="8.55" shape="148.40,166.80 148.95,158.75 149.08,158.29"/>
    </edge>
    <edge id=":C_3" function="internal">
        <lane id=":C_3_0" index="0" speed="3.65" length="1.44" shape="148.40,166.80 149.20,165.60"/>
    </edge>
    <edge id=":C_22" function="internal">
        <lane id=":C_22_0" index="0" speed="9.94" length="13.93" shape="149.08,158.29 150.60,153.00 153.35,149.55 157.20,148.40"/>
    </edge>
    <edge id=":C_23" function="internal">
        <lane id=":C_23_0" index="0" speed="3.65" length="3.23" shape="149.20,165.60 150.00,165.20 150.80,165.60 151.60,166.80"/>
    </edge>
    <edge id=":C_4" function="internal">
        <lane id=":C_4_0" index="0" speed="6.51" length="9.03" shape="157.20,161.20 154.75,161.55 153.00,162.60 151.95,164.35 151.60,166.80"/>
    </edge>
    <edge id=":C_5" function="internal">
        <lane id=":C_5_0" index="0" speed="16.67" length="14.40" shape="157.20,161.20 142.80,161.20"/>
        <lane id=":C_5_1" index="1" speed="16.67" length="14.40" shape="157.20,158.00 142.80,158.00"/>
        <lane id=":C_5_2" index="2" speed="16.67" length="14.40" shape="157.20,154.80 142.80,154.80"/>
        <lane id=":C_5_3" index="3" speed="16.67" length="14.40" shape="157.20,151.60 142.80,151.60"/>
    </edge>
    <edge id=":C_9" function="internal">
        <lane id=":C_9_0" index="0" speed="9.94" length="2.58" shape="157.20,151.60 154.73,150.86"/>
    </edge>
    <edge id=":C_10" function="internal">
        <lane id=":C_10_0" index="0" speed="3.65" length="1.44" shape="157.20,151.60 156.00,150.80"/>
    </edge>
    <edge id=":C_24" function="internal">
        <lane id=":C_24_0" index="0" speed="9.94" length="19.90" shape="154.73,150.86 153.35,150.45 150.60,147.00 148.95,141.25 148.40,133.20"/>
    </edge>
    <edge id=":C_25" function="internal">
        <lane id=":C_25_0" index="0" speed="3.65" length="3.23" shape="156.00,150.80 155.60,150.00 156.00,149.20 157.20,148.40"/>
    </edge>
    <edge id=":C_11" function="internal">
        <lane id=":C_11_0" index="0" speed="6.51" length="9.03" shape="151.60,133.20 151.95,135.65 153.00,137.40 154.75,138.45 157.20,138.80"/>
    </edge>
    <edge id=":C_12" function="internal">
        <lane id=":C_12_0" index="0" speed="8.33" length="33.60" shape="151.60,133.20 151.60,166.80"/>
    </edge>
    <edge id=":C_13" function="internal">
        <lane id=":C_13_0" index="0" speed="9.94" length="8.55" shape="151.60,133.20 151.05,141.25 150.92,141.71"/>
    </edge>
    <edge id=":C_14" function="internal">
        <lane id=":C_14_0" index="0" speed="3.65" length="1.44" shape="151.60,133.20 150.80,134.40"/>
    </edge>
    <edge id=":C_26" function="internal">
        <lane id=":C_26_0" index="0" speed="9.94" length="13.93" shape="150.92,141.71 149.40,147.00 146.65,150.45 142.80,151.60"/>
    </edge>
    <edge id=":C_27" function="internal">
        <lane id=":C_27_0" index="0" speed="3.65" length="3.23" shape="150.80,134.40 150.00,134.80 149.20,134.40 148.40,133.20"/>
    </edge>
    <edge id=":C_15" function="internal">
        <lane id=":C_15_0" index="0" speed="6.51" length="9.03" shape="142.80,138.80 145.25,138.45 147.00,137.40 148.05,135.65 148.40,133.20"/>
    </edge>
    <edge id=":C_16" function="internal">
        <lane id=":C_16_0" index="0" speed="16.67" length="14.40" shape="142.80,138.80 157.20,138.80"/>
        <lane id=":C_16_1" index="1" speed="16.67" length="14.40" shape="142.80,142.00 157.20,142.00"/>
        <lane id=":C_16_2" index="2" speed="16.67" length="14.40" shape="142.80,145.20 157.20,145.20"/>
        <lane id=":C_16_3" index="3" speed="16.67" length="14.40" shape="142.80,148.40 157.20,148.40"/>
    </edge>
    <edge id=":C_20" function="internal">
        <lane id=":C_20_0" index="0" speed="9.94" length="2.58" shape="142.80,148.40 145.27,149.14"/>
    </edge>
    <edge id=":C_21" function="internal">
        <lane id=":C_21_0" index="0" speed="3.65" length="1.44" shape="142.80,148.40 144.00,149.20"/>
    </edge>
    <edge id=":C_28" function="internal">
        <lane id=":C_28_0" index="0" speed="9.94" length="19.90" shape="145.27,149.14 146.65,149.55 149.40,153.00 151.05,158.75 151.60,166.80"/>
    </edge>
    <edge id=":C_29" function="internal">
        <lane id=":C_29_0" index="0" speed="3.65" length="3.23" shape="144.00,149.20 144.40,150.00 144.00,150.80 142.80,151.60"/>
    </edge>
    <edge id=":E_0" function="internal">
        <lane id=":E_0_0" index="0" speed="3.65" length="4.67" shape="300.00,148.40 301.20,149.20 301.60,150.00 301.20,150.80 300.00,151.60"/>
    </edge>
    <edge id=":N_0" function="internal">
        <lane id=":N_0_0" index="0" speed="3.65" length="4.67" shape="151.60,300.00 150.80,301.20 150.00,301.60 149.20,301.20 148.40,300.00"/>
    </edge>
    <edge id=":S_0" function="internal">
        <lane id=":S_0_0" index="0" speed="3.65" length="4.67" shape="148.40,0.00 149.20,-1.20 150.00,-1.60 150.80,-1.20 151.60,0.00"/>
    </edge>
    <edge id=":W_0" function="internal">
        <lane id=":W_0_0" index="0" speed="3.65" length="4.67" shape="0.00,151.60 -1.20,150.80 -1.60,150.00 -1.20,149.20 0.00,148.40"/>
    </edge>

    <edge id="C2E" from="C" to="E" priority="-1">
        <lane id="C2E_0" index="0" speed="16.67" length="142.80" shape="157.20,138.80 300.00,138.80"/>
        <lane id="C2E_1" index="1" speed="16.67" length="142.80" shape="157.20,142.00 300.00,142.00"/>
        <lane id="C2E_2" index="2" speed="16.67" length="142.80" shape="157.20,145.20 300.00,145.20"/>
        <lane id="C2E_3" index="3" speed="16.67" length="142.80" shape="157.20,148.40 300.00,148.40"/>
    </edge>
    <edge id="C2N" from="C" to="N" priority="-1">
        <lane id="C2N_0" index="0" speed="8.33" length="133.20" shape="151.60,166.80 151.60,300.00"/>
    </edge>
    <edge id="C2S" from="C" to="S" priority="-1">
        <lane id="C2S_0" index="0" speed="8.33" length="133.20" shape="148.40,133.20 148.40,0.00"/>
    </edge>
    <edge id="C2W" from="C" to="W" priority="-1">
        <lane id="C2W_0" index="0" speed="16.67" length="142.80" shape="142.80,161.20 0.00,161.20"/>
        <lane id="C2W_1" index="1" speed="16.67" length="142.80" shape="142.80,158.00 0.00,158.00"/>
        <lane id="C2W_2" index="2" speed="16.67" length="142.80" shape="142.80,154.80 0.00,154.80"/>
        <lane id="C2W_3" index="3" speed="16.67" length="142.80" shape="142.80,151.60 0.00,151.60"/>
    </edge>
    <edge id="E2C" from="E" to="C" priority="-1">
        <lane id="E2C_0" index="0" speed="16.67" length="142.80" shape="300.00,161.20 157.20,161.20"/>
        <lane id="E2C_1" index="1" speed="16.67" length="142.80" shape="300.00,158.00 157.20,158.00"/>
        <lane id="E2C_2" index="2" speed="16.67" length="142.80" shape="300.00,154.80 157.20,154.80"/>
        <lane id="E2C_3" index="3" speed="16.67" length="142.80" shape="300.00,151.60 157.20,151.60"/>
    </edge>
    <edge id="N2C" from="N" to="C" priority="-1">
        <lane id="N2C_0" index="0" speed="8.33" length="133.20" shape="148.40,300.00 148.40,166.80"/>
    </edge>
    <edge id="S2C" from="S" to="C" priority="-1">
        <lane id="S2C_0" index="0" speed="8.33" length="133.20" shape="151.60,0.00 151.60,133.20"/>
    </edge>
    <edge id="W2C" from="W" to="C" priority="-1">
        <lane id="W2C_0" index="0" speed="16.67" length="142.80" shape="0.00,138.80 142.80,138.80"/>
        <lane id="W2C_1" index="1" speed="16.67" length="142.80" shape="0.00,142.00 142.80,142.00"/>
        <lane id="W2C_2" index="2" speed="16.67" length="142.80" shape="0.00,145.20 142.80,145.20"/>
        <lane id="W2C_3" index="3" speed="16.67" length="142.80" shape="0.00,148.40 142.80,148.40"/>
    </edge>

    <tlLogic id="C" type="static" programID="0" offset="0">
        <phase duration="41" state="rrrrGGGGGggrrrrGGGGGgg"/>
        <phase duration="4"  state="rrrryyyyyyyrrrryyyyyyy"/>
        <phase duration="40" state="GGggrrrrrrrGGggrrrrrrr"/>
        <phase duration="4"  state="yyyyrrrrrrryyyyrrrrrrr"/>
        <phase duration="1"  state="rrrrrrrrrrrrrrrrrrrrrr"/>
    </tlLogic>

    <junction id="C" type="traffic_light" x="150.00" y="150.00" incLanes="N2C_0 E2C_0 E2C_1 E2C_2 E2C_3 S2C_0 W2C_0 W2C_1 W2C_2 W2C_3" intLanes=":C_0_0 :C_1_0 :C_22_0 :C_23_0 :C_4_0 :C_5_0 :C_5_1 :C_5_2 :C_5_3 :C_24_0 :C_25_0 :C_11_0 :C_12_0 :C_26_0 :C_27_0 :C_15_0 :C_16_0 :C_16_1 :C_16_2 :C_16_3 :C_28_0 :C_29_0" shape="146.80,166.80 153.20,166.80 153.64,164.58 154.20,163.80 154.98,163.24 155.98,162.91 157.20,162.80 157.20,137.20 154.98,136.76 154.20,136.20 153.64,135.42 153.31,134.42 153.20,133.20 146.80,133.20 146.36,135.42 145.80,136.20 145.02,136.76 144.02,137.09 142.80,137.20 142.80,162.80 145.02,163.24 145.80,163.80 146.36,164.58 146.69,165.58">
        <request index="0"  response="0000000000000111100000" foes="0000000000000111100000" cont="0"/>
        <request index="1"  response="0111111000001111100000" foes="0111111110001111100000" cont="0"/>
        <request index="2"  response="0111110001001111100000" foes="0111110001011111100000" cont="1"/>
        <request index="3"  response="0100000001000000010000" foes="0100000001000000010000" cont="1"/>
        <request index="4"  response="0000000000000000000000" foes="0100000001000000001000" cont="0"/>
        <request index="5"  response="0000000000000000000100" foes="1100000011000000000111" cont="0"/>
        <request index="6"  response="0000000000000000000100" foes="1100000011000000000111" cont="0"/>
        <request index="7"  response="0000000000000000000100" foes="1100000011000000000111" cont="0"/>
        <request index="8"  response="0000000010000000000100" foes="1100000011000000000111" cont="0"/>
        <request index="9"  response="0011111010000000000100" foes="0011111111000000000110" cont="1"/>
        <request index="10" response="0011110000000000000100" foes="0011110000000000000100" cont="1"/>
        <request index="11" response="0011110000000000000000" foes="0011110000000000000000" cont="0"/>
        <request index="12" response="0111110000001111110000" foes="0111110000001111111100" cont="0"/>
        <request index="13" response="0111110000001111100010" foes="1111110000001111100010" cont="1"/>
        <request index="14" response="0000001000001000000010" foes="0000001000001000000010" cont="1"/>
        <request index="15" response="0000000000000000000000" foes="0000000100001000000010" cont="0"/>
        <request index="16" response="0000000010000000000000" foes="0000000011111000000110" cont="0"/>
        <request index="17" response="0000000010000000000000" foes="0000000011111000000110" cont="0"/>
        <request index="18" response="0000000010000000000000" foes="0000000011111000000110" cont="0"/>
        <request index="19" response="0000000010000000000100" foes="0000000011111000000110" cont="0"/>
        <request index="20" response="0000000010000111110100" foes="0000000011000111111110" cont="1"/>
        <request index="21" response="0000000010000111100000" foes="0000000010000111100000" cont="1"/>
    </junction>
    <junction id="E" type="priority" x="300.00" y="150.00" incLanes="C2E_0 C2E_1 C2E_2 C2E_3" intLanes=":E_0_0" shape="300.00,150.00 300.00,137.20 300.00,150.00">
        <request index="0" response="0" foes="0" cont="0"/>
    </junction>
    <junction id="N" type="priority" x="150.00" y="300.00" incLanes="C2N_0" intLanes=":N_0_0" shape="150.00,300.00 153.20,300.00 150.00,300.00">
        <request index="0" response="0" foes="0" cont="0"/>
    </junction>
    <junction id="S" type="priority" x="150.00" y="0.00" incLanes="C2S_0" intLanes=":S_0_0" shape="150.00,0.00 146.80,0.00 150.00,0.00">
        <request index="0" response="0" foes="0" cont="0"/>
    </junction>
    <junction id="W" type="priority" x="0.00" y="150.00" incLanes="C2W_0 C2W_1 C2W_2 C2W_3" intLanes=":W_0_0" shape="0.00,150.00 0.00,162.80 0.00,150.00">
        <request index="0" response="0" foes="0" cont="0"/>
    </junction>

    <junction id=":C_22_0" type="internal" x="149.08" y="158.29" incLanes=":C_2_0 S2C_0" intLanes=":C_5_0 :C_5_1 :C_5_2 :C_5_3 :C_9_0 :C_10_0 :C_11_0 :C_12_0 :C_16_0 :C_16_1 :C_16_2 :C_16_3 :C_20_0"/>
    <junction id=":C_23_0" type="internal" x="149.20" y="165.60" incLanes=":C_3_0 E2C_0 S2C_0 W2C_3" intLanes=":C_4_0 :C_12_0 :C_20_0"/>
    <junction id=":C_24_0" type="internal" x="154.73" y="150.86" incLanes=":C_9_0 W2C_0 W2C_1 W2C_2 W2C_3" intLanes=":C_1_0 :C_2_0 :C_12_0 :C_13_0 :C_14_0 :C_15_0 :C_16_0 :C_16_1 :C_16_2 :C_16_3"/>
    <junction id=":C_25_0" type="internal" x="156.00" y="150.80" incLanes=":C_10_0 N2C_0 S2C_0 W2C_0 W2C_1 W2C_2 W2C_3" intLanes=":C_2_0 :C_11_0 :C_16_0 :C_16_1 :C_16_2 :C_16_3"/>
    <junction id=":C_26_0" type="internal" x="150.92" y="141.71" incLanes=":C_13_0 N2C_0" intLanes=":C_0_0 :C_1_0 :C_5_0 :C_5_1 :C_5_2 :C_5_3 :C_9_0 :C_16_0 :C_16_1 :C_16_2 :C_16_3 :C_20_0 :C_21_0"/>
    <junction id=":C_27_0" type="internal" x="150.80" y="134.40" incLanes=":C_14_0 E2C_3 N2C_0 W2C_0" intLanes=":C_1_0 :C_9_0 :C_15_0"/>
    <junction id=":C_28_0" type="internal" x="145.27" y="149.14" incLanes=":C_20_0 E2C_0 E2C_1 E2C_2 E2C_3" intLanes=":C_1_0 :C_2_0 :C_3_0 :C_4_0 :C_5_0 :C_5_1 :C_5_2 :C_5_3 :C_12_0 :C_13_0"/>
    <junction id=":C_29_0" type="internal" x="144.00" y="149.20" incLanes=":C_21_0 E2C_0 E2C_1 E2C_2 E2C_3 N2C_0 S2C_0" intLanes=":C_0_0 :C_5_0 :C_5_1 :C_5_2 :C_5_3 :C_13_0"/>

    <connection from="C2E" to="E2C" fromLane="3" toLane="3" via=":E_0_0" dir="t" state="M"/>
    <connection from="C2N" to="N2C" fromLane="0" toLane="0" via=":N_0_0" dir="t" state="M"/>
    <connection from="C2S" to="S2C" fromLane="0" toLane="0" via=":S_0_0" dir="t" state="M"/>
    <connection from="C2W" to="W2C" fromLane="3" toLane="3" via=":W_0_0" dir="t" state="M"/>
    <connection from="E2C" to="C2N" fromLane="0" toLane="0" via=":C_4_0" tl="C" linkIndex="4" dir="r" state="O"/>
    <connection from="E2C" to="C2W" fromLane="0" toLane="0" via=":C_5_0" tl="C" linkIndex="5" dir="s" state="O"/>
    <connection from="E2C" to="C2W" fromLane="1" toLane="1" via=":C_5_1" tl="C" linkIndex="6" dir="s" state="O"/>
    <connection from="E2C" to="C2W" fromLane="2" toLane="2" via=":C_5_2" tl="C" linkIndex="7" dir="s" state="O"/>
    <connection from="E2C" to="C2W" fromLane="3" toLane="3" via=":C_5_3" tl="C" linkIndex="8" dir="s" state="O"/>
    <connection from="E2C" to="C2S" fromLane="3" toLane="0" via=":C_9_0" tl="C" linkIndex="9" dir="l" state="o"/>
    <connection from="E2C" to="C2E" fromLane="3" toLane="3" via=":C_10_0" tl="C" linkIndex="10" dir="t" state="o"/>
    <connection from="N2C" to="C2W" fromLane="0" toLane="0" via=":C_0_0" tl="C" linkIndex="0" dir="r" state="o"/>
    <connection from="N2C" to="C2S" fromLane="0" toLane="0" via=":C_1_0" tl="C" linkIndex="1" dir="s" state="o"/>
    <connection from="N2C" to="C2E" fromLane="0" toLane="3" via=":C_2_0" tl="C" linkIndex="2" dir="l" state="o"/>
    <connection from="N2C" to="C2N" fromLane="0" toLane="0" via=":C_3_0" tl="C" linkIndex="3" dir="t" state="o"/>
    <connection from="S2C" to="C2E" fromLane="0" toLane="0" via=":C_11_0" tl="C" linkIndex="11" dir="r" state="o"/>
    <connection from="S2C" to="C2N" fromLane="0" toLane="0" via=":C_12_0" tl="C" linkIndex="12" dir="s" state="o"/>
    <connection from="S2C" to="C2W" fromLane="0" toLane="3" via=":C_13_0" tl="C" linkIndex="13" dir="l" state="o"/>
    <connection from="S2C" to="C2S" fromLane="0" toLane="0" via=":C_14_0" tl="C" linkIndex="14" dir="t" state="o"/>
    <connection from="W2C" to="C2S" fromLane="0" toLane="0" via=":C_15_0" tl="C" linkIndex="15" dir="r" state="O"/>
    <connection from="W2C" to="C2E" fromLane="0" toLane="0" via=":C_16_0" tl="C" linkIndex="16" dir="s" state="O"/>
    <connection from="W2C" to="C2E" fromLane="1" toLane="1" via=":C_16_1" tl="C" linkIndex="17" dir="s" state="O"/>
    <connection from="W2C" to="C2E" fromLane="2" toLane="2" via=":C_16_2" tl="C" linkIndex="18" dir="s" state="O"/>
    <connection from="W2C" to="C2E" fromLane="3" toLane="3" via=":C_16_3" tl="C" linkIndex="19" dir="s" state="O"/>
    <connection from="W2C" to="C2N" fromLane="3" toLane="0" via=":C_20_0" tl="C" linkIndex="20" dir="l" state="o"/>
    <connection from="W2C" to="C2W" fromLane="3" toLane="3" via=":C_21_0" tl="C" linkIndex="21" dir="t" state="o"/>

    <connection from=":C_0" to="C2W" fromLane="0" toLane="0" dir="r" state="M"/>
    <connection from=":C_1" to="C2S" fromLane="0" toLane="0" dir="s" state="M"/>
    <connection from=":C_2" to="C2E" fromLane="0" toLane="3" via=":C_22_0" dir="l" state="m"/>
    <connection from=":C_22" to="C2E" fromLane="0" toLane="3" dir="l" state="M"/>
    <connection from=":C_3" to="C2N" fromLane="0" toLane="0" via=":C_23_0" dir="t" state="m"/>
    <connection from=":C_23" to="C2N" fromLane="0" toLane="0" dir="t" state="M"/>
    <connection from=":C_4" to="C2N" fromLane="0" toLane="0" dir="r" state="M"/>
    <connection from=":C_5" to="C2W" fromLane="0" toLane="0" dir="s" state="M"/>
    <connection from=":C_5" to="C2W" fromLane="1" toLane="1" dir="s" state="M"/>
    <connection from=":C_5" to="C2W" fromLane="2" toLane="2" dir="s" state="M"/>
    <connection from=":C_5" to="C2W" fromLane="3" toLane="3" dir="s" state="M"/>
    <connection from=":C_9" to="C2S" fromLane="0" toLane="0" via=":C_24_0" dir="l" state="m"/>
    <connection from=":C_24" to="C2S" fromLane="0" toLane="0" dir="l" state="M"/>
    <connection from=":C_10" to="C2E" fromLane="0" toLane="3" via=":C_25_0" dir="t" state="m"/>
    <connection from=":C_25" to="C2E" fromLane="0" toLane="3" dir="t" state="M"/>
    <connection from=":C_11" to="C2E" fromLane="0" toLane="0" dir="r" state="M"/>
    <connection from=":C_12" to="C2N" fromLane="0" toLane="0" dir="s" state="M"/>
    <connection from=":C_13" to="C2W" fromLane="0" toLane="3" via=":C_26_0" dir="l" state="m"/>
    <connection from=":C_26" to="C2W" fromLane="0" toLane="3" dir="l" state="M"/>
    <connection from=":C_14" to="C2S" fromLane="0" toLane="0" via=":C_27_0" dir="t" state="m"/>
    <connection from=":C_27" to="C2S" fromLane="0" toLane="0" dir="t" state="M"/>
    <connection from=":C_15" to="C2S" fromLane="0" toLane="0" dir="r" state="M"/>
    <connection from=":C_16" to="C2E" fromLane="0" toLane="0" dir="s" state="M"/>
    <connection from=":C_16" to="C2E" fromLane="1" toLane="1" dir="s" state="M"/>
    <connection from=":C_16" to="C2E" fromLane="2" toLane="2" dir="s" state="M"/>
    <connection from=":C_16" to="C2E" fromLane="3" toLane="3" dir="s" state="M"/>
    <connection from=":C_20" to="C2N" fromLane="0" toLane="0" via=":C_28_0" dir="l" state="m"/>
    <connection from=":C_28" to="C2N" fromLane="0" toLane="0" dir="l" state="M"/>
    <connection from=":C_21" to="C2W" fromLane="0" toLane="3" via=":C_29_0" dir="t" state="m"/>
    <connection from=":C_29" to="C2W" fromLane="0" toLane="3" dir="t" state="M"/>
    <connection from=":E_0" to="E2C" fromLane="0" toLane="3" dir="t" state="M"/>
    <connection from=":N_0" to="N2C" fromLane="0" toLane="0" dir="t" state="M"/>
    <connection from=":S_0" to="S2C" fromLane="0" toLane="0" dir="t" state="M"/>
    <connection from=":W_0" to="W2C" fromLane="0" toLane="3" dir="t" state="M"/>

</net>
