<?xml version="1.0" encoding="UTF-8"?>
<routes xmlns:xsi="http://www.w3.org/2001/XMLSchema-instance" xsi:noNamespaceSchemaLocation="http://sumo.dlr.de/xsd/routes_file.xsd">

    <vType id="car" accel="2.6" decel="4.5" sigma="0.5" length="5" maxSpeed="13.89"/>

    <route id="NS"    edges="N2C C2S"/>
    <route id="SN"    edges="S2C C2N"/>
    <route id="EW"    edges="E2C C2W"/>
    <route id="WE"    edges="W2C C2E"/>
    <route id="NE2SW" edges="NE2C C2SW"/>
    <route id="SW2NE" edges="SW2C C2NE"/>

    <flow id="flow_NS"    type="car" route="NS"    begin="0" end="3600" vehsPerHour="50"/>
    <flow id="flow_SN"    type="car" route="SN"    begin="0" end="3600" vehsPerHour="50"/>
    <flow id="flow_EW"    type="car" route="EW"    begin="0" end="3600" vehsPerHour="50"/>
    <flow id="flow_WE"    type="car" route="WE"    begin="0" end="3600" vehsPerHour="50"/>
    <flow id="flow_NE2SW" type="car" route="NE2SW" begin="0" end="3600" vehsPerHour="20"/>
    <flow id="flow_SW2NE" type="car" route="SW2NE" begin="0" end="3600" vehsPerHour="20"/>

</routes>