<?xml version="1.0" encoding="UTF-8"?>

<!-- generated on 2026-06-06T22:08:11.948776+01:00 by Eclipse SUMO netconvert 1.25.0
<netconvertConfiguration xmlns:xsi="http://www.w3.org/2001/XMLSchema-instance" xsi:noNamespaceSchemaLocation="http://sumo.dlr.de/xsd/netconvertConfiguration.xsd">

    <input>
        <node-files value="networks\intersection7\intersection7.nod.xml"/>
        <edge-files value="networks\intersection7\intersection7.edg.xml"/>
    </input>

    <output>
        <output-file value="networks\intersection7\intersection7.net.xml"/>
    </output>

</netconvertConfiguration>
-->

<net version="1.20" junctionCornerDetail="5" limitTurnSpeed="5.50" xmlns:xsi="http://www.w3.org/2001/XMLSchema-instance" xsi:noNamespaceSchemaLocation="http://sumo.dlr.de/xsd/net_file.xsd">

    <location netOffset="130.00,120.00" convBoundary="0.00,0.00,260.00,240.00" origBoundary="-130.00,-120.00,130.00,120.00" projParameter="!"/>

    <edge id=":C_0" function="internal">
        <lane id=":C_0_0" index="0" speed="7.24" length="10.72" shape="134.78,130.94 132.39,129.29 130.00,128.74 127.61,129.29 125.22,130.94"/>
    </edge>
    <edge id=":C_1" function="internal">
        <lane id=":C_1_0" index="0" speed="13.89" length="21.87" shape="134.78,130.94 118.71,116.11"/>
        <lane id=":C_1_1" index="1" speed="13.89" length="21.87" shape="136.95,128.59 120.88,113.76"/>
    </edge>
    <edge id=":C_3" function="internal">
        <lane id=":C_3_0" index="0" speed="9.14" length="4.97" shape="136.95,128.59 133.81,124.73"/>
    </edge>
    <edge id=":C_4" function="internal">
        <lane id=":C_4_0" index="0" speed="3.65" length="1.44" shape="136.95,128.59 136.61,127.19"/>
    </edge>
    <edge id=":C_20" function="internal">
        <lane id=":C_20_0" index="0" speed="9.14" length="15.00" shape="133.81,124.73 133.46,124.30 132.29,120.00 133.46,115.70 136.95,111.41"/>
    </edge>
    <edge id=":C_21" function="internal">
        <lane id=":C_21_0" index="0" speed="3.65" length="3.23" shape="136.61,127.19 136.86,126.33 137.69,126.01 139.12,126.24"/>
    </edge>
    <edge id=":C_5" function="internal">
        <lane id=":C_5_0" index="0" speed="6.34" length="9.04" shape="141.29,116.11 139.71,118.06 139.18,120.00 139.71,121.94 141.29,123.89"/>
    </edge>
    <edge id=":C_6" function="internal">
        <lane id=":C_6_0" index="0" speed="13.89" length="21.87" shape="141.29,116.11 125.22,130.94"/>
        <lane id=":C_6_1" index="1" speed="13.89" length="21.87" shape="139.12,113.76 123.05,128.59"/>
    </edge>
    <edge id=":C_8" function="internal">
        <lane id=":C_8_0" index="0" speed="9.79" length="5.08" shape="139.12,113.76 134.94,116.65"/>
    </edge>
    <edge id=":C_9" function="internal">
        <lane id=":C_9_0" index="0" speed="3.65" length="1.44" shape="139.12,113.76 137.69,113.99"/>
    </edge>
    <edge id=":C_22" function="internal">
        <lane id=":C_22_0" index="0" speed="9.79" length="15.37" shape="134.94,116.65 134.56,116.92 130.00,117.97 125.44,116.92 120.88,113.76"/>
    </edge>
    <edge id=":C_23" function="internal">
        <lane id=":C_23_0" index="0" speed="3.65" length="3.23" shape="137.69,113.99 136.86,113.67 136.61,112.81 136.95,111.41"/>
    </edge>
    <edge id=":C_10" function="internal">
        <lane id=":C_10_0" index="0" speed="7.24" length="10.72" shape="125.22,109.06 127.61,110.71 130.00,111.26 132.39,110.71 134.78,109.06"/>
    </edge>
    <edge id=":C_11" function="internal">
        <lane id=":C_11_0" index="0" speed="13.89" length="21.87" shape="125.22,109.06 141.29,123.89"/>
        <lane id=":C_11_1" index="1" speed="13.89" length="21.87" shape="123.05,111.41 139.12,126.24"/>
    </edge>
    <edge id=":C_13" function="internal">
        <lane id=":C_13_0" index="0" speed="9.14" length="4.97" shape="123.05,111.41 126.19,115.27"/>
    </edge>
    <edge id=":C_14" function="internal">
        <lane id=":C_14_0" index="0" speed="3.65" length="1.44" shape="123.05,111.41 123.39,112.81"/>
    </edge>
    <edge id=":C_24" function="internal">
        <lane id=":C_24_0" index="0" speed="9.14" length="15.00" shape="126.19,115.27 126.54,115.70 127.71,120.00 126.54,124.30 123.05,128.59"/>
    </edge>
    <edge id=":C_25" function="internal">
        <lane id=":C_25_0" index="0" speed="3.65" length="3.23" shape="123.39,112.81 123.14,113.67 122.31,113.99 120.88,113.76"/>
    </edge>
    <edge id=":C_15" function="internal">
        <lane id=":C_15_0" index="0" speed="6.34" length="9.04" shape="118.71,123.89 120.29,121.94 120.82,120.00 120.29,118.06 118.71,116.11"/>
    </edge>
    <edge id=":C_16" function="internal">
        <lane id=":C_16_0" index="0" speed="13.89" length="21.87" shape="118.71,123.89 134.78,109.06"/>
        <lane id=":C_16_1" index="1" speed="13.89" length="21.87" shape="120.88,126.24 136.95,111.41"/>
    </edge>
    <edge id=":C_18" function="internal">
        <lane id=":C_18_0" index="0" speed="9.79" length="5.08" shape="120.88,126.24 125.06,123.35"/>
    </edge>
    <edge id=":C_19" function="internal">
        <lane id=":C_19_0" index="0" speed="3.65" length="1.44" shape="120.88,126.24 122.31,126.01"/>
    </edge>
    <edge id=":C_26" function="internal">
        <lane id=":C_26_0" index="0" speed="9.79" length="15.37" shape="125.06,123.35 125.44,123.08 130.00,122.03 134.56,123.08 139.12,126.24"/>
    </edge>
    <edge id=":C_27" function="internal">
        <lane id=":C_27_0" index="0" speed="3.65" length="3.23" shape="122.31,126.01 123.14,126.33 123.39,127.19 123.05,128.59"/>
    </edge>
    <edge id=":NE_0" function="internal">
        <lane id=":NE_0_0" index="0" speed="3.65" length="4.67" shape="261.09,238.82 261.42,240.23 261.18,241.09 260.34,241.40 258.91,241.18"/>
    </edge>
    <edge id=":NW_0" function="internal">
        <lane id=":NW_0_0" index="0" speed="3.65" length="4.67" shape="1.09,241.18 -0.34,241.40 -1.18,241.09 -1.42,240.23 -1.09,238.82"/>
    </edge>
    <edge id=":SE_0" function="internal">
        <lane id=":SE_0_0" index="0" speed="3.65" length="4.67" shape="258.91,-1.18 260.34,-1.40 261.18,-1.09 261.42,-0.23 261.09,1.18"/>
    </edge>
    <edge id=":SW_0" function="internal">
        <lane id=":SW_0_0" index="0" speed="3.65" length="4.67" shape="-1.09,1.18 -1.42,-0.23 -1.18,-1.09 -0.34,-1.40 1.09,-1.18"/>
    </edge>

    <edge id="C2NE" from="C" to="NE" priority="-1">
        <lane id="C2NE_0" index="0" speed="13.89" length="165.98" shape="141.29,123.89 263.26,236.47"/>
        <lane id="C2NE_1" index="1" speed="13.89" length="165.98" shape="139.12,126.24 261.09,238.82"/>
    </edge>
    <edge id="C2NW" from="C" to="NW" priority="-1">
        <lane id="C2NW_0" index="0" speed="13.89" length="165.98" shape="125.22,130.94 3.26,243.53"/>
        <lane id="C2NW_1" index="1" speed="13.89" length="165.98" shape="123.05,128.59 1.09,241.18"/>
    </edge>
    <edge id="C2SE" from="C" to="SE" priority="-1">
        <lane id="C2SE_0" index="0" speed="13.89" length="165.98" shape="134.78,109.06 256.74,-3.53"/>
        <lane id="C2SE_1" index="1" speed="13.89" length="165.98" shape="136.95,111.41 258.91,-1.18"/>
    </edge>
    <edge id="C2SW" from="C" to="SW" priority="-1">
        <lane id="C2SW_0" index="0" speed="13.89" length="165.98" shape="118.71,116.11 -3.26,3.53"/>
        <lane id="C2SW_1" index="1" speed="13.89" length="165.98" shape="120.88,113.76 -1.09,1.18"/>
    </edge>
    <edge id="NE2C" from="NE" to="C" priority="-1">
        <lane id="NE2C_0" index="0" speed="13.89" length="165.98" shape="256.74,243.53 134.78,130.94"/>
        <lane id="NE2C_1" index="1" speed="13.89" length="165.98" shape="258.91,241.18 136.95,128.59"/>
    </edge>
    <edge id="NW2C" from="NW" to="C" priority="-1">
        <lane id="NW2C_0" index="0" speed="13.89" length="165.98" shape="-3.26,236.47 118.71,123.89"/>
        <lane id="NW2C_1" index="1" speed="13.89" length="165.98" shape="-1.09,238.82 120.88,126.24"/>
    </edge>
    <edge id="SE2C" from="SE" to="C" priority="-1">
        <lane id="SE2C_0" index="0" speed="13.89" length="165.98" shape="263.26,3.53 141.29,116.11"/>
        <lane id="SE2C_1" index="1" speed="13.89" length="165.98" shape="261.09,1.18 139.12,113.76"/>
    </edge>
    <edge id="SW2C" from="SW" to="C" priority="-1">
        <lane id="SW2C_0" index="0" speed="13.89" length="165.98" shape="3.26,-3.53 125.22,109.06"/>
        <lane id="SW2C_1" index="1" speed="13.89" length="165.98" shape="1.09,-1.18 123.05,111.41"/>
    </edge>

    <tlLogic id="C" type="static" programID="0" offset="0">
        <phase duration="42" state="rrrrrGGGggrrrrrGGGgg"/>
        <phase duration="3"  state="rrrrryyyyyrrrrryyyyy"/>
        <phase duration="42" state="GGGggrrrrrGGGggrrrrr"/>
        <phase duration="3"  state="yyyyyrrrrryyyyyrrrrr"/>
    </tlLogic>

    <junction id="C" type="traffic_light" x="130.00" y="120.00" incLanes="NE2C_0 NE2C_1 SE2C_0 SE2C_1 SW2C_0 SW2C_1 NW2C_0 NW2C_1" intLanes=":C_0_0 :C_1_0 :C_1_1 :C_20_0 :C_21_0 :C_5_0 :C_6_0 :C_6_1 :C_22_0 :C_23_0 :C_10_0 :C_11_0 :C_11_1 :C_24_0 :C_25_0 :C_15_0 :C_16_0 :C_16_1 :C_26_0 :C_27_0" shape="133.69,132.12 142.37,122.71 141.07,120.90 140.91,120.00 141.07,119.10 141.56,118.19 142.37,117.29 133.69,107.88 131.23,109.40 130.00,109.59 128.77,109.40 127.54,108.83 126.31,107.88 117.63,117.29 118.93,119.10 119.09,120.00 118.93,120.90 118.44,121.81 117.63,122.71 126.31,132.12 128.77,130.60 130.00,130.41 131.23,130.60 132.46,131.17">
        <request index="0"  response="00000000000011000000" foes="00000000000011000000" cont="0"/>
        <request index="1"  response="01111000000111000000" foes="01111110000111000000" cont="0"/>
        <request index="2"  response="01111000000111000000" foes="01111110000111000000" cont="0"/>
        <request index="3"  response="01110001100111000000" foes="01110001101111000000" cont="1"/>
        <request index="4"  response="01000001100000000000" foes="01000001100000000000" cont="1"/>
        <request index="5"  response="00000000000000000000" foes="00000001100000000000" cont="0"/>
        <request index="6"  response="00000000000000001000" foes="11000011100000001111" cont="0"/>
        <request index="7"  response="00000010000000001000" foes="11000011100000001111" cont="0"/>
        <request index="8"  response="00110010000000001000" foes="00110111100000001110" cont="1"/>
        <request index="9"  response="00110000000000001000" foes="00110000000000001000" cont="1"/>
        <request index="10" response="00110000000000000000" foes="00110000000000000000" cont="0"/>
        <request index="11" response="01110000000111100000" foes="01110000000111111000" cont="0"/>
        <request index="12" response="01110000000111100000" foes="01110000000111111000" cont="0"/>
        <request index="13" response="01110000000111000110" foes="11110000000111000110" cont="1"/>
        <request index="14" response="00000000000100000110" foes="00000000000100000110" cont="1"/>
        <request index="15" response="00000000000000000000" foes="00000000000000000110" cont="0"/>
        <request index="16" response="00000010000000000000" foes="00000011111100001110" cont="0"/>
        <request index="17" response="00000010000000001000" foes="00000011111100001110" cont="0"/>
        <request index="18" response="00000010000011001000" foes="00000011100011011110" cont="1"/>
        <request index="19" response="00000010000011000000" foes="00000010000011000000" cont="1"/>
    </junction>
    <junction id="NE" type="priority" x="260.00" y="240.00" incLanes="C2NE_0 C2NE_1" intLanes=":NE_0_0" shape="260.00,240.00 264.34,235.30 260.00,240.00">
        <request index="0" response="0" foes="0" cont="0"/>
    </junction>
    <junction id="NW" type="priority" x="0.00" y="240.00" incLanes="C2NW_0 C2NW_1" intLanes=":NW_0_0" shape="0.00,240.00 4.34,244.70 0.00,240.00">
        <request index="0" response="0" foes="0" cont="0"/>
    </junction>
    <junction id="SE" type="priority" x="260.00" y="0.00" incLanes="C2SE_0 C2SE_1" intLanes=":SE_0_0" shape="260.00,0.00 255.66,-4.70 260.00,0.00">
        <request index="0" response="0" foes="0" cont="0"/>
    </junction>
    <junction id="SW" type="priority" x="0.00" y="0.00" incLanes="C2SW_0 C2SW_1" intLanes=":SW_0_0" shape="0.00,0.00 -4.34,4.70 0.00,0.00">
        <request index="0" response="0" foes="0" cont="0"/>
    </junction>

    <junction id=":C_20_0" type="internal" x="133.81" y="124.73" incLanes=":C_3_0 SW2C_0 SW2C_1" intLanes=":C_6_0 :C_6_1 :C_8_0 :C_9_0 :C_10_0 :C_11_0 :C_11_1 :C_16_0 :C_16_1 :C_18_0"/>
    <junction id=":C_21_0" type="internal" x="136.61" y="127.19" incLanes=":C_4_0 NW2C_1 SE2C_0 SW2C_0 SW2C_1" intLanes=":C_5_0 :C_11_0 :C_11_1 :C_18_0"/>
    <junction id=":C_22_0" type="internal" x="134.94" y="116.65" incLanes=":C_8_0 NW2C_0 NW2C_1" intLanes=":C_1_0 :C_1_1 :C_3_0 :C_11_0 :C_11_1 :C_13_0 :C_14_0 :C_15_0 :C_16_0 :C_16_1"/>
    <junction id=":C_23_0" type="internal" x="137.69" y="113.99" incLanes=":C_9_0 NE2C_1 NW2C_0 NW2C_1 SW2C_0" intLanes=":C_3_0 :C_10_0 :C_16_0 :C_16_1"/>
    <junction id=":C_24_0" type="internal" x="126.19" y="115.27" incLanes=":C_13_0 NE2C_0 NE2C_1" intLanes=":C_0_0 :C_1_0 :C_1_1 :C_6_0 :C_6_1 :C_8_0 :C_16_0 :C_16_1 :C_18_0 :C_19_0"/>
    <junction id=":C_25_0" type="internal" x="123.39" y="112.81" incLanes=":C_14_0 NE2C_0 NE2C_1 NW2C_0 SE2C_1" intLanes=":C_1_0 :C_1_1 :C_8_0 :C_15_0"/>
    <junction id=":C_26_0" type="internal" x="125.06" y="123.35" incLanes=":C_18_0 SE2C_0 SE2C_1" intLanes=":C_1_0 :C_1_1 :C_3_0 :C_4_0 :C_5_0 :C_6_0 :C_6_1 :C_11_0 :C_11_1 :C_13_0"/>
    <junction id=":C_27_0" type="internal" x="122.31" y="126.01" incLanes=":C_19_0 NE2C_0 SE2C_0 SE2C_1 SW2C_1" intLanes=":C_0_0 :C_6_0 :C_6_1 :C_13_0"/>

    <connection from="C2NE" to="NE2C" fromLane="1" toLane="1" via=":NE_0_0" dir="t" state="M"/>
    <connection from="C2NW" to="NW2C" fromLane="1" toLane="1" via=":NW_0_0" dir="t" state="M"/>
    <connection from="C2SE" to="SE2C" fromLane="1" toLane="1" via=":SE_0_0" dir="t" state="M"/>
    <connection from="C2SW" to="SW2C" fromLane="1" toLane="1" via=":SW_0_0" dir="t" state="M"/>
    <connection from="NE2C" to="C2NW" fromLane="0" toLane="0" via=":C_0_0" tl="C" linkIndex="0" dir="r" state="o"/>
    <connection from="NE2C" to="C2SW" fromLane="0" toLane="0" via=":C_1_0" tl="C" linkIndex="1" dir="s" state="o"/>
    <connection from="NE2C" to="C2SW" fromLane="1" toLane="1" via=":C_1_1" tl="C" linkIndex="2" dir="s" state="o"/>
    <connection from="NE2C" to="C2SE" fromLane="1" toLane="1" via=":C_3_0" tl="C" linkIndex="3" dir="l" state="o"/>
    <connection from="NE2C" to="C2NE" fromLane="1" toLane="1" via=":C_4_0" tl="C" linkIndex="4" dir="t" state="o"/>
    <connection from="NW2C" to="C2SW" fromLane="0" toLane="0" via=":C_15_0" tl="C" linkIndex="15" dir="r" state="O"/>
    <connection from="NW2C" to="C2SE" fromLane="0" toLane="0" via=":C_16_0" tl="C" linkIndex="16" dir="s" state="O"/>
    <connection from="NW2C" to="C2SE" fromLane="1" toLane="1" via=":C_16_1" tl="C" linkIndex="17" dir="s" state="O"/>
    <connection from="NW2C" to="C2NE" fromLane="1" toLane="1" via=":C_18_0" tl="C" linkIndex="18" dir="l" state="o"/>
    <connection from="NW2C" to="C2NW" fromLane="1" toLane="1" via=":C_19_0" tl="C" linkIndex="19" dir="t" state="o"/>
    <connection from="SE2C" to="C2NE" fromLane="0" toLane="0" via=":C_5_0" tl="C" linkIndex="5" dir="r" state="O"/>
    <connection from="SE2C" to="C2NW" fromLane="0" toLane="0" via=":C_6_0" tl="C" linkIndex="6" dir="s" state="O"/>
    <connection from="SE2C" to="C2NW" fromLane="1" toLane="1" via=":C_6_1" tl="C" linkIndex="7" dir="s" state="O"/>
    <connection from="SE2C" to="C2SW" fromLane="1" toLane="1" via=":C_8_0" tl="C" linkIndex="8" dir="l" state="o"/>
    <connection from="SE2C" to="C2SE" fromLane="1" toLane="1" via=":C_9_0" tl="C" linkIndex="9" dir="t" state="o"/>
    <connection from="SW2C" to="C2SE" fromLane="0" toLane="0" via=":C_10_0" tl="C" linkIndex="10" dir="r" state="o"/>
    <connection from="SW2C" to="C2NE" fromLane="0" toLane="0" via=":C_11_0" tl="C" linkIndex="11" dir="s" state="o"/>
    <connection from="SW2C" to="C2NE" fromLane="1" toLane="1" via=":C_11_1" tl="C" linkIndex="12" dir="s" state="o"/>
    <connection from="SW2C" to="C2NW" fromLane="1" toLane="1" via=":C_13_0" tl="C" linkIndex="13" dir="l" state="o"/>
    <connection from="SW2C" to="C2SW" fromLane="1" toLane="1" via=":C_14_0" tl="C" linkIndex="14" dir="t" state="o"/>

    <connection from=":C_0" to="C2NW" fromLane="0" toLane="0" dir="r" state="M"/>
    <connection from=":C_1" to="C2SW" fromLane="0" toLane="0" dir="s" state="M"/>
    <connection from=":C_1" to="C2SW" fromLane="1" toLane="1" dir="s" state="M"/>
    <connection from=":C_3" to="C2SE" fromLane="0" toLane="1" via=":C_20_0" dir="l" state="m"/>
    <connection from=":C_20" to="C2SE" fromLane="0" toLane="1" dir="l" state="M"/>
    <connection from=":C_4" to="C2NE" fromLane="0" toLane="1" via=":C_21_0" dir="t" state="m"/>
    <connection from=":C_21" to="C2NE" fromLane="0" toLane="1" dir="t" state="M"/>
    <connection from=":C_5" to="C2NE" fromLane="0" toLane="0" dir="r" state="M"/>
    <connection from=":C_6" to="C2NW" fromLane="0" toLane="0" dir="s" state="M"/>
    <connection from=":C_6" to="C2NW" fromLane="1" toLane="1" dir="s" state="M"/>
    <connection from=":C_8" to="C2SW" fromLane="0" toLane="1" via=":C_22_0" dir="l" state="m"/>
    <connection from=":C_22" to="C2SW" fromLane="0" toLane="1" dir="l" state="M"/>
    <connection from=":C_9" to="C2SE" fromLane="0" toLane="1" via=":C_23_0" dir="t" state="m"/>
    <connection from=":C_23" to="C2SE" fromLane="0" toLane="1" dir="t" state="M"/>
    <connection from=":C_10" to="C2SE" fromLane="0" toLane="0" dir="r" state="M"/>
    <connection from=":C_11" to="C2NE" fromLane="0" toLane="0" dir="s" state="M"/>
    <connection from=":C_11" to="C2NE" fromLane="1" toLane="1" dir="s" state="M"/>
    <connection from=":C_13" to="C2NW" fromLane="0" toLane="1" via=":C_24_0" dir="l" state="m"/>
    <connection from=":C_24" to="C2NW" fromLane="0" toLane="1" dir="l" state="M"/>
    <connection from=":C_14" to="C2SW" fromLane="0" toLane="1" via=":C_25_0" dir="t" state="m"/>
    <connection from=":C_25" to="C2SW" fromLane="0" toLane="1" dir="t" state="M"/>
    <connection from=":C_15" to="C2SW" fromLane="0" toLane="0" dir="r" state="M"/>
    <connection from=":C_16" to="C2SE" fromLane="0" toLane="0" dir="s" state="M"/>
    <connection from=":C_16" to="C2SE" fromLane="1" toLane="1" dir="s" state="M"/>
    <connection from=":C_18" to="C2NE" fromLane="0" toLane="1" via=":C_26_0" dir="l" state="m"/>
    <connection from=":C_26" to="C2NE" fromLane="0" toLane="1" dir="l" state="M"/>
    <connection from=":C_19" to="C2NW" fromLane="0" toLane="1" via=":C_27_0" dir="t" state="m"/>
    <connection from=":C_27" to="C2NW" fromLane="0" toLane="1" dir="t" state="M"/>
    <connection from=":NE_0" to="NE2C" fromLane="0" toLane="1" dir="t" state="M"/>
    <connection from=":NW_0" to="NW2C" fromLane="0" toLane="1" dir="t" state="M"/>
    <connection from=":SE_0" to="SE2C" fromLane="0" toLane="1" dir="t" state="M"/>
    <connection from=":SW_0" to="SW2C" fromLane="0" toLane="1" dir="t" state="M"/>

</net>
