<?xml version="1.0" encoding="UTF-8"?>
<edges>
    <edge id="NE2C" from="NE" to="C"  numLanes="2" speed="13.89"/>
    <edge id="C2NE" from="C"  to="NE" numLanes="2" speed="13.89"/>
    <edge id="SW2C" from="SW" to="C"  numLanes="2" speed="13.89"/>
    <edge id="C2SW" from="C"  to="SW" numLanes="2" speed="13.89"/>
    <edge id="NW2C" from="NW" to="C"  numLanes="2" speed="13.89"/>
    <edge id="C2NW" from="C"  to="NW" numLanes="2" speed="13.89"/>
    <edge id="SE2C" from="SE" to="C"  numLanes="2" speed="13.89"/>
    <edge id="C2SE" from="C"  to="SE" numLanes="2" speed="13.89"/>
</edges>