<?xml version="1.0" encoding="UTF-8"?>
<nodes>
    <node id="C"  x="0"    y="0"    type="traffic_light"/>
    <node id="NE" x="130"  y="120"  type="dead_end"/>
    <node id="SW" x="-130" y="-120" type="dead_end"/>
    <node id="NW" x="-130" y="120"  type="dead_end"/>
    <node id="SE" x="130"  y="-120" type="dead_end"/>
</nodes>