<?xml version="1.0" encoding="UTF-8"?>
<routes xmlns:xsi="http://www.w3.org/2001/XMLSchema-instance" xsi:noNamespaceSchemaLocation="http://sumo.dlr.de/xsd/routes_file.xsd">
    <vType id="car" accel="2.6" decel="4.5" sigma="0.5" length="5" maxSpeed="13.89"/>
    <vType id="emergency" accel="3.0" decel="6.0" sigma="0.0" length="5" maxSpeed="16.67" color="1,0,0"/>
    <route id="NE" edges="N2C C2E"/>
    <route id="NW" edges="N2C C2W"/>
    <route id="EW" edges="E2C C2W"/>
    <route id="WE" edges="W2C C2E"/>
    <route id="EN" edges="E2C C2N"/>
    <route id="WN" edges="W2C C2N"/>
    <flow id="flow_NE"  type="car" route="NE"  begin="0" end="999999" vehsPerHour="75"/>
    <flow id="flow_NW"  type="car" route="NW"  begin="0" end="999999" vehsPerHour="75"/>
    <flow id="flow_EW"  type="car" route="EW"  begin="0" end="999999" vehsPerHour="100"/>
    <flow id="flow_WE"  type="car" route="WE"  begin="0" end="999999" vehsPerHour="100"/>
    <flow id="flow_EN"  type="car" route="EN"  begin="0" end="999999" vehsPerHour="50"/>
    <flow id="flow_WN"  type="car" route="WN"  begin="0" end="999999" vehsPerHour="50"/>
    <flow id="flow_EV_NE" type="emergency" route="NE" begin="100" end="999999" vehsPerHour="1"/>
    <flow id="flow_EV_EW" type="emergency" route="EW" begin="300" end="999999" vehsPerHour="1"/>
</routes>