<?xml version="1.0" encoding="UTF-8"?>

<!-- generated on 2026-05-18T10:02:33.931812+01:00 by Eclipse SUMO netconvert 1.25.0
<netconvertConfiguration xmlns:xsi="http://www.w3.org/2001/XMLSchema-instance" xsi:noNamespaceSchemaLocation="http://sumo.dlr.de/xsd/netconvertConfiguration.xsd">

    <input>
        <node-files value="networks\linked2\linked2.nod.xml"/>
        <edge-files value="networks\linked2\linked2.edg.xml"/>
    </input>

    <output>
        <output-file value="networks\linked2\linked2.net.xml[D"/>
    </output>

</netconvertConfiguration>
-->

<net version="1.20" junctionCornerDetail="5" limitTurnSpeed="5.50" xmlns:xsi="http://www.w3.org/2001/XMLSchema-instance" xsi:noNamespaceSchemaLocation="http://sumo.dlr.de/xsd/net_file.xsd">

    <location netOffset="550.00,550.00" convBoundary="0.00,0.00,1100.00,1100.00" origBoundary="-550.00,-550.00,550.00,550.00" projParameter="!"/>

    <edge id=":Int1_0" function="internal">
        <lane id=":Int1_0_0" index="0" speed="7.33" length="11.73" shape="542.00,563.60 541.65,559.75 540.60,557.00 538.85,555.35 536.40,554.80"/>
    </edge>
    <edge id=":Int1_1" function="internal">
        <lane id=":Int1_1_0" index="0" speed="13.89" length="27.17" shape="542.00,563.60 542.28,555.19 542.68,548.93 542.57,543.35 541.30,537.01"/>
        <lane id=":Int1_1_1" index="1" speed="13.89" length="27.17" shape="545.20,563.60 545.46,554.86 545.82,548.32 545.66,542.55 544.37,536.14"/>
    </edge>
    <edge id=":Int1_3" function="internal">
        <lane id=":Int1_3_0" index="0" speed="13.89" length="4.07" shape="548.40,563.60 549.00,559.58"/>
    </edge>
    <edge id=":Int1_4" function="internal">
        <lane id=":Int1_4_0" index="0" speed="11.81" length="2.91" shape="548.40,563.60 549.05,560.76"/>
    </edge>
    <edge id=":Int1_5" function="internal">
        <lane id=":Int1_5_0" index="0" speed="3.65" length="1.44" shape="548.40,563.60 549.20,562.40"/>
    </edge>
    <edge id=":Int1_32" function="internal">
        <lane id=":Int1_32_0" index="0" speed="13.89" length="32.93" shape="549.00,559.58 549.49,556.27 552.76,548.55 558.20,540.43 565.82,531.91"/>
    </edge>
    <edge id=":Int1_33" function="internal">
        <lane id=":Int1_33_0" index="0" speed="11.81" length="29.24" shape="549.05,560.76 549.92,556.95 554.46,552.20 562.04,549.35 572.65,548.40"/>
    </edge>
    <edge id=":Int1_34" function="internal">
        <lane id=":Int1_34_0" index="0" speed="3.65" length="3.23" shape="549.20,562.40 550.00,562.00 550.80,562.40 551.60,563.60"/>
    </edge>
    <edge id=":Int1_6" function="internal">
        <lane id=":Int1_6_0" index="0" speed="8.71" length="16.99" shape="572.65,558.00 566.24,558.35 561.66,559.40 558.92,561.15 558.00,563.60"/>
    </edge>
    <edge id=":Int1_7" function="internal">
        <lane id=":Int1_7_0" index="0" speed="13.89" length="36.41" shape="572.65,558.00 562.06,557.50 552.65,556.40 544.17,555.30 536.40,554.80"/>
        <lane id=":Int1_7_1" index="1" speed="13.89" length="36.41" shape="572.65,554.80 562.06,554.30 552.65,553.20 544.17,552.10 536.40,551.60"/>
    </edge>
    <edge id=":Int1_9" function="internal">
        <lane id=":Int1_9_0" index="0" speed="13.77" length="7.83" shape="572.65,551.60 564.85,550.90"/>
    </edge>
    <edge id=":Int1_10" function="internal">
        <lane id=":Int1_10_0" index="0" speed="8.76" length="2.80" shape="572.65,551.60 569.95,550.87"/>
    </edge>
    <edge id=":Int1_11" function="internal">
        <lane id=":Int1_11_0" index="0" speed="3.65" length="1.44" shape="572.65,551.60 571.45,550.80"/>
    </edge>
    <edge id=":Int1_35" function="internal">
        <lane id=":Int1_35_0" index="0" speed="13.77" length="26.88" shape="564.85,550.90 561.94,550.63 553.65,547.73 547.80,542.90 544.37,536.14"/>
    </edge>
    <edge id=":Int1_36" function="internal">
        <lane id=":Int1_36_0" index="0" speed="8.76" length="24.72" shape="569.95,550.87 565.55,549.68 561.83,544.83 561.81,538.44 565.82,531.91"/>
    </edge>
    <edge id=":Int1_37" function="internal">
        <lane id=":Int1_37_0" index="0" speed="3.65" length="3.23" shape="571.45,550.80 571.05,550.00 571.45,549.20 572.65,548.40"/>
    </edge>
    <edge id=":Int1_12" function="internal">
        <lane id=":Int1_12_0" index="0" speed="5.47" length="9.74" shape="570.35,536.44 568.41,538.87 568.14,540.61 569.56,541.65 572.65,542.00"/>
    </edge>
    <edge id=":Int1_13" function="internal">
        <lane id=":Int1_13_0" index="0" speed="13.89" length="31.99" shape="570.35,536.44 563.55,543.97 558.69,551.00 555.77,557.55 554.80,563.60"/>
        <lane id=":Int1_13_1" index="1" speed="13.89" length="34.49" shape="568.09,534.18 560.87,542.20 555.72,549.78 552.63,556.91 551.60,563.60"/>
    </edge>
    <edge id=":Int1_15" function="internal">
        <lane id=":Int1_15_0" index="0" speed="13.89" length="37.00" shape="568.09,534.18 559.57,541.80 551.45,547.24 543.73,550.51 536.40,551.60"/>
    </edge>
    <edge id=":Int1_16" function="internal">
        <lane id=":Int1_16_0" index="0" speed="9.80" length="30.27" shape="568.09,534.18 560.95,540.21 554.09,543.43 548.30,542.51 544.37,536.14"/>
    </edge>
    <edge id=":Int1_17" function="internal">
        <lane id=":Int1_17_0" index="0" speed="3.65" length="2.34" shape="568.09,534.18 566.67,534.46 565.82,534.18"/>
    </edge>
    <edge id=":Int1_38" function="internal">
        <lane id=":Int1_38_0" index="0" speed="3.65" length="2.34" shape="565.82,534.18 565.54,533.33 565.82,531.91"/>
    </edge>
    <edge id=":Int1_18" function="internal">
        <lane id=":Int1_18_0" index="0" speed="7.37" length="16.48" shape="550.53,534.38 552.04,536.50 554.71,536.43 558.55,534.14 563.56,529.65"/>
    </edge>
    <edge id=":Int1_19" function="internal">
        <lane id=":Int1_19_0" index="0" speed="12.06" length="26.41" shape="550.53,534.38 553.07,539.11 557.61,542.49 564.13,544.52 572.65,545.20"/>
    </edge>
    <edge id=":Int1_20" function="internal">
        <lane id=":Int1_20_0" index="0" speed="13.89" length="29.56" shape="550.53,534.38 552.85,540.89 555.29,546.97 557.22,554.06 558.00,563.60"/>
        <lane id=":Int1_20_1" index="1" speed="13.89" length="29.56" shape="547.45,535.26 549.76,541.68 552.16,547.54 554.04,554.35 554.80,563.60"/>
        <lane id=":Int1_20_2" index="2" speed="13.89" length="29.56" shape="547.45,535.26 549.26,541.73 550.56,547.66 551.34,554.48 551.60,563.60"/>
    </edge>
    <edge id=":Int1_23" function="internal">
        <lane id=":Int1_23_0" index="0" speed="9.41" length="8.13" shape="547.45,535.26 548.51,542.41 548.26,543.27"/>
    </edge>
    <edge id=":Int1_24" function="internal">
        <lane id=":Int1_24_0" index="0" speed="3.65" length="1.44" shape="547.45,535.26 547.01,536.63"/>
    </edge>
    <edge id=":Int1_39" function="internal">
        <lane id=":Int1_39_0" index="0" speed="9.41" length="16.15" shape="548.26,543.27 547.02,547.51 542.99,550.58 536.40,551.60"/>
    </edge>
    <edge id=":Int1_40" function="internal">
        <lane id=":Int1_40_0" index="0" speed="3.65" length="3.23" shape="547.01,536.63 546.35,537.23 545.47,537.07 544.37,536.14"/>
    </edge>
    <edge id=":Int1_25" function="internal">
        <lane id=":Int1_25_0" index="0" speed="6.71" length="11.71" shape="536.40,545.20 539.42,544.69 541.24,543.15 541.87,540.60 541.30,537.01"/>
    </edge>
    <edge id=":Int1_26" function="internal">
        <lane id=":Int1_26_0" index="0" speed="13.89" length="31.99" shape="536.40,545.20 543.87,543.76 551.08,540.08 557.74,535.06 563.56,529.65"/>
    </edge>
    <edge id=":Int1_27" function="internal">
        <lane id=":Int1_27_0" index="0" speed="13.89" length="36.36" shape="536.40,545.20 544.17,544.70 552.65,543.60 562.06,542.50 572.65,542.00"/>
        <lane id=":Int1_27_1" index="1" speed="13.89" length="36.36" shape="536.40,548.40 544.17,547.90 552.65,546.80 562.06,545.70 572.65,545.20"/>
        <lane id=":Int1_27_2" index="2" speed="13.89" length="36.36" shape="536.40,548.40 572.65,548.40"/>
    </edge>
    <edge id=":Int1_30" function="internal">
        <lane id=":Int1_30_0" index="0" speed="10.36" length="6.95" shape="536.40,548.40 543.05,549.35 543.25,549.47"/>
    </edge>
    <edge id=":Int1_31" function="internal">
        <lane id=":Int1_31_0" index="0" speed="3.65" length="1.44" shape="536.40,548.40 537.60,549.20"/>
    </edge>
    <edge id=":Int1_41" function="internal">
        <lane id=":Int1_41_0" index="0" speed="10.36" length="17.57" shape="543.25,549.47 547.80,552.20 550.65,556.95 551.60,563.60"/>
    </edge>
    <edge id=":Int1_42" function="internal">
        <lane id=":Int1_42_0" index="0" speed="3.65" length="3.23" shape="537.60,549.20 538.00,550.00 537.60,550.80 536.40,551.60"/>
    </edge>
    <edge id=":Int2_0" function="internal">
        <lane id=":Int2_0_0" index="0" speed="8.00" length="14.19" shape="545.20,910.40 544.65,906.55 543.00,903.80 540.25,902.15 536.40,901.60"/>
    </edge>
    <edge id=":Int2_1" function="internal">
        <lane id=":Int2_1_0" index="0" speed="13.89" length="21.01" shape="545.20,910.40 544.70,904.41 543.60,900.20 542.50,895.88 542.00,889.60"/>
        <lane id=":Int2_1_1" index="1" speed="13.89" length="21.01" shape="548.40,910.40 547.90,904.41 546.80,900.20 545.70,895.88 545.20,889.60"/>
        <lane id=":Int2_1_2" index="2" speed="13.89" length="21.01" shape="548.40,910.40 548.40,889.60"/>
    </edge>
    <edge id=":Int2_4" function="internal">
        <lane id=":Int2_4_0" index="0" speed="9.84" length="5.50" shape="548.40,910.40 549.35,905.15 549.45,905.02"/>
    </edge>
    <edge id=":Int2_5" function="internal">
        <lane id=":Int2_5_0" index="0" speed="3.65" length="1.44" shape="548.40,910.40 549.20,909.20"/>
    </edge>
    <edge id=":Int2_20" function="internal">
        <lane id=":Int2_20_0" index="0" speed="9.84" length="16.49" shape="549.45,905.02 552.20,901.40 556.95,899.15 563.60,898.40"/>
    </edge>
    <edge id=":Int2_21" function="internal">
        <lane id=":Int2_21_0" index="0" speed="3.65" length="3.23" shape="549.20,909.20 550.00,908.80 550.80,909.20 551.60,910.40"/>
    </edge>
    <edge id=":Int2_6" function="internal">
        <lane id=":Int2_6_0" index="0" speed="7.33" length="11.73" shape="563.60,904.80 559.75,905.15 557.00,906.20 555.35,907.95 554.80,910.40"/>
    </edge>
    <edge id=":Int2_7" function="internal">
        <lane id=":Int2_7_0" index="0" speed="13.89" length="27.41" shape="563.60,904.80 555.83,904.30 548.12,903.20 541.35,902.10 536.40,901.60"/>
    </edge>
    <edge id=":Int2_8" function="internal">
        <lane id=":Int2_8_0" index="0" speed="9.84" length="6.30" shape="563.60,901.60 557.34,900.89"/>
    </edge>
    <edge id=":Int2_9" function="internal">
        <lane id=":Int2_9_0" index="0" speed="3.65" length="1.44" shape="563.60,901.60 562.40,900.80"/>
    </edge>
    <edge id=":Int2_22" function="internal">
        <lane id=":Int2_22_0" index="0" speed="9.84" length="15.70" shape="557.34,900.89 556.95,900.85 552.20,898.60 549.35,894.85 548.40,889.60"/>
    </edge>
    <edge id=":Int2_23" function="internal">
        <lane id=":Int2_23_0" index="0" speed="3.65" length="3.23" shape="562.40,900.80 562.00,900.00 562.40,899.20 563.60,898.40"/>
    </edge>
    <edge id=":Int2_10" function="internal">
        <lane id=":Int2_10_0" index="0" speed="6.51" length="9.03" shape="558.00,889.60 558.35,892.05 559.40,893.80 561.15,894.85 563.60,895.20"/>
    </edge>
    <edge id=":Int2_11" function="internal">
        <lane id=":Int2_11_0" index="0" speed="13.89" length="21.12" shape="558.00,889.60 557.50,895.88 556.40,900.20 555.30,904.41 554.80,910.40"/>
        <lane id=":Int2_11_1" index="1" speed="13.89" length="21.12" shape="554.80,889.60 554.30,895.88 553.20,900.20 552.10,904.41 551.60,910.40"/>
    </edge>
    <edge id=":Int2_13" function="internal">
        <lane id=":Int2_13_0" index="0" speed="9.84" length="4.01" shape="551.60,889.60 550.89,893.55"/>
    </edge>
    <edge id=":Int2_14" function="internal">
        <lane id=":Int2_14_0" index="0" speed="3.65" length="1.44" shape="551.60,889.60 550.80,890.80"/>
    </edge>
    <edge id=":Int2_24" function="internal">
        <lane id=":Int2_24_0" index="0" speed="9.84" length="17.98" shape="550.89,893.55 550.65,894.85 547.80,898.60 543.05,900.85 536.40,901.60"/>
    </edge>
    <edge id=":Int2_25" function="internal">
        <lane id=":Int2_25_0" index="0" speed="3.65" length="3.23" shape="550.80,890.80 550.00,891.20 549.20,890.80 548.40,889.60"/>
    </edge>
    <edge id=":Int2_15" function="internal">
        <lane id=":Int2_15_0" index="0" speed="7.33" length="11.73" shape="536.40,898.40 538.85,897.85 540.60,896.20 541.65,893.45 542.00,889.60"/>
    </edge>
    <edge id=":Int2_16" function="internal">
        <lane id=":Int2_16_0" index="0" speed="13.89" length="27.30" shape="536.40,898.40 541.35,897.90 548.12,896.80 555.83,895.70 563.60,895.20"/>
        <lane id=":Int2_16_1" index="1" speed="13.89" length="27.30" shape="536.40,898.40 563.60,898.40"/>
    </edge>
    <edge id=":Int2_18" function="internal">
        <lane id=":Int2_18_0" index="0" speed="9.84" length="8.98" shape="536.40,898.40 543.05,899.15 545.12,900.13"/>
    </edge>
    <edge id=":Int2_19" function="internal">
        <lane id=":Int2_19_0" index="0" speed="3.65" length="1.44" shape="536.40,898.40 537.60,899.20"/>
    </edge>
    <edge id=":Int2_26" function="internal">
        <lane id=":Int2_26_0" index="0" speed="9.84" length="13.01" shape="545.12,900.13 547.80,901.40 550.65,905.15 551.60,910.40"/>
    </edge>
    <edge id=":Int2_27" function="internal">
        <lane id=":Int2_27_0" index="0" speed="3.65" length="3.23" shape="537.60,899.20 538.00,900.00 537.60,900.80 536.40,901.60"/>
    </edge>
    <edge id=":Int2_E_0" function="internal">
        <lane id=":Int2_E_0_0" index="0" speed="3.65" length="4.67" shape="750.00,898.40 751.20,899.20 751.60,900.00 751.20,900.80 750.00,901.60"/>
    </edge>
    <edge id=":Int2_N_0" function="internal">
        <lane id=":Int2_N_0_0" index="0" speed="3.65" length="4.67" shape="551.60,1100.00 550.80,1101.20 550.00,1101.60 549.20,1101.20 548.40,1100.00"/>
    </edge>
    <edge id=":Int2_W_0" function="internal">
        <lane id=":Int2_W_0_0" index="0" speed="3.65" length="4.67" shape="350.00,901.60 348.80,900.80 348.40,900.00 348.80,899.20 350.00,898.40"/>
    </edge>
    <edge id=":Int3_0" function="internal">
        <lane id=":Int3_0_0" index="0" speed="5.47" length="10.30" shape="195.20,567.44 194.86,564.08 193.85,562.68 192.17,563.22 189.81,565.70"/>
    </edge>
    <edge id=":Int3_1" function="internal">
        <lane id=":Int3_1_0" index="0" speed="9.15" length="18.86" shape="195.20,567.44 194.53,561.91 192.52,557.96 189.17,555.59 184.48,554.80"/>
    </edge>
    <edge id=":Int3_2" function="internal">
        <lane id=":Int3_2_0" index="0" speed="13.89" length="31.04" shape="195.20,567.44 195.20,536.40"/>
        <lane id=":Int3_2_1" index="1" speed="13.89" length="31.04" shape="198.40,567.44 198.40,536.40"/>
    </edge>
    <edge id=":Int3_4" function="internal">
        <lane id=":Int3_4_0" index="0" speed="10.52" length="7.85" shape="198.40,567.44 199.10,559.63"/>
    </edge>
    <edge id=":Int3_5" function="internal">
        <lane id=":Int3_5_0" index="0" speed="3.65" length="1.44" shape="198.40,567.44 199.20,566.24"/>
    </edge>
    <edge id=":Int3_30" function="internal">
        <lane id=":Int3_30_0" index="0" speed="10.52" length="17.44" shape="199.10,559.63 199.15,559.11 201.40,553.16 205.15,549.59 210.40,548.40"/>
    </edge>
    <edge id=":Int3_31" function="internal">
        <lane id=":Int3_31_0" index="0" speed="3.65" length="3.23" shape="199.20,566.24 200.00,565.84 200.80,566.24 201.60,567.44"/>
    </edge>
    <edge id=":Int3_6" function="internal">
        <lane id=":Int3_6_0" index="0" speed="8.25" length="15.15" shape="210.40,554.80 207.95,555.59 206.20,557.96 205.15,561.91 204.80,567.44"/>
    </edge>
    <edge id=":Int3_7" function="internal">
        <lane id=":Int3_7_0" index="0" speed="13.89" length="24.14" shape="210.40,554.80 204.57,555.48 199.20,557.53 194.28,560.93 189.81,565.70"/>
    </edge>
    <edge id=":Int3_8" function="internal">
        <lane id=":Int3_8_0" index="0" speed="13.89" length="26.09" shape="210.40,554.80 203.97,555.30 198.59,556.40 192.63,557.50 184.48,558.00"/>
        <lane id=":Int3_8_1" index="1" speed="13.89" length="26.09" shape="210.40,551.60 203.97,552.10 198.59,553.20 192.63,554.30 184.48,554.80"/>
        <lane id=":Int3_8_2" index="2" speed="13.89" length="26.09" shape="210.40,551.60 184.48,551.60"/>
    </edge>
    <edge id=":Int3_11" function="internal">
        <lane id=":Int3_11_0" index="0" speed="9.84" length="5.45" shape="210.40,551.60 205.15,550.65 205.06,550.58"/>
    </edge>
    <edge id=":Int3_12" function="internal">
        <lane id=":Int3_12_0" index="0" speed="3.65" length="1.44" shape="210.40,551.60 209.20,550.80"/>
    </edge>
    <edge id=":Int3_32" function="internal">
        <lane id=":Int3_32_0" index="0" speed="9.84" length="16.55" shape="205.06,550.58 201.40,547.80 199.15,543.05 198.40,536.40"/>
    </edge>
    <edge id=":Int3_33" function="internal">
        <lane id=":Int3_33_0" index="0" speed="3.65" length="3.23" shape="209.20,550.80 208.80,550.00 209.20,549.20 210.40,548.40"/>
    </edge>
    <edge id=":Int3_13" function="internal">
        <lane id=":Int3_13_0" index="0" speed="7.33" length="11.73" shape="204.80,536.40 205.15,540.25 206.20,543.00 207.95,544.65 210.40,545.20"/>
    </edge>
    <edge id=":Int3_14" function="internal">
        <lane id=":Int3_14_0" index="0" speed="13.89" length="31.04" shape="204.80,536.40 204.80,567.44"/>
        <lane id=":Int3_14_1" index="1" speed="13.89" length="31.04" shape="201.60,536.40 201.60,567.44"/>
    </edge>
    <edge id=":Int3_16" function="internal">
        <lane id=":Int3_16_0" index="0" speed="13.89" length="4.23" shape="201.60,536.40 200.89,540.57"/>
    </edge>
    <edge id=":Int3_17" function="internal">
        <lane id=":Int3_17_0" index="0" speed="10.68" length="4.48" shape="201.60,536.40 200.89,540.82"/>
    </edge>
    <edge id=":Int3_18" function="internal">
        <lane id=":Int3_18_0" index="0" speed="3.65" length="1.44" shape="201.60,536.40 200.80,537.60"/>
    </edge>
    <edge id=":Int3_34" function="internal">
        <lane id=":Int3_34_0" index="0" speed="13.89" length="27.69" shape="200.89,540.57 200.19,544.64 196.86,553.32 192.95,560.87 189.81,565.70"/>
    </edge>
    <edge id=":Int3_35" function="internal">
        <lane id=":Int3_35_0" index="0" speed="10.68" length="21.60" shape="200.89,540.82 200.53,543.05 197.32,547.80 191.97,550.65 184.48,551.60"/>
    </edge>
    <edge id=":Int3_36" function="internal">
        <lane id=":Int3_36_0" index="0" speed="3.65" length="3.23" shape="200.80,537.60 200.00,538.00 199.20,537.60 198.40,536.40"/>
    </edge>
    <edge id=":Int3_19" function="internal">
        <lane id=":Int3_19_0" index="0" speed="7.80" length="13.42" shape="184.48,542.00 189.17,541.65 192.52,540.60 194.53,538.85 195.20,536.40"/>
    </edge>
    <edge id=":Int3_20" function="internal">
        <lane id=":Int3_20_0" index="0" speed="13.89" length="26.17" shape="184.48,542.00 192.63,542.50 198.59,543.60 203.97,544.70 210.40,545.20"/>
        <lane id=":Int3_20_1" index="1" speed="13.89" length="26.17" shape="184.48,545.20 192.63,545.70 198.59,546.80 203.97,547.90 210.40,548.40"/>
    </edge>
    <edge id=":Int3_22" function="internal">
        <lane id=":Int3_22_0" index="0" speed="11.27" length="4.53" shape="184.48,548.40 188.96,549.11"/>
    </edge>
    <edge id=":Int3_23" function="internal">
        <lane id=":Int3_23_0" index="0" speed="8.37" length="2.83" shape="184.48,548.40 187.22,549.13"/>
    </edge>
    <edge id=":Int3_24" function="internal">
        <lane id=":Int3_24_0" index="0" speed="3.65" length="1.44" shape="184.48,548.40 185.68,549.20"/>
    </edge>
    <edge id=":Int3_37" function="internal">
        <lane id=":Int3_37_0" index="0" speed="11.27" length="24.64" shape="188.96,549.11 191.97,549.59 197.32,553.16 200.53,559.11 201.60,567.44"/>
    </edge>
    <edge id=":Int3_38" function="internal">
        <lane id=":Int3_38_0" index="0" speed="8.37" length="20.70" shape="187.22,549.13 190.43,549.99 193.23,554.07 193.00,559.65 189.81,565.70"/>
    </edge>
    <edge id=":Int3_39" function="internal">
        <lane id=":Int3_39_0" index="0" speed="3.65" length="3.23" shape="185.68,549.20 186.08,550.00 185.68,550.80 184.48,551.60"/>
    </edge>
    <edge id=":Int3_25" function="internal">
        <lane id=":Int3_25_0" index="0" speed="5.54" length="9.44" shape="187.29,563.74 188.79,561.23 188.82,559.43 187.38,558.36 184.48,558.00"/>
    </edge>
    <edge id=":Int3_26" function="internal">
        <lane id=":Int3_26_0" index="0" speed="13.89" length="28.75" shape="187.29,563.74 189.82,559.21 192.39,552.34 194.40,544.34 195.20,536.40"/>
    </edge>
    <edge id=":Int3_27" function="internal">
        <lane id=":Int3_27_0" index="0" speed="13.89" length="28.62" shape="187.29,563.74 193.21,557.03 199.03,552.23 204.76,549.36 210.40,548.40"/>
    </edge>
    <edge id=":Int3_28" function="internal">
        <lane id=":Int3_28_0" index="0" speed="7.31" length="19.81" shape="187.29,563.74 191.65,560.43 196.33,560.08 200.07,562.49 201.60,567.44"/>
    </edge>
    <edge id=":Int3_29" function="internal">
        <lane id=":Int3_29_0" index="0" speed="3.65" length="1.44" shape="187.29,563.74 188.65,563.28"/>
    </edge>
    <edge id=":Int3_40" function="internal">
        <lane id=":Int3_40_0" index="0" speed="3.65" length="3.23" shape="188.65,563.28 189.53,563.46 189.92,564.27 189.81,565.70"/>
    </edge>
    <edge id=":Int3_N_0" function="internal">
        <lane id=":Int3_N_0_0" index="0" speed="3.65" length="4.67" shape="201.60,750.00 200.80,751.20 200.00,751.60 199.20,751.20 198.40,750.00"/>
    </edge>
    <edge id=":Int3_NW_0" function="internal">
        <lane id=":Int3_NW_0_0" index="0" speed="3.65" length="4.67" shape="61.26,730.98 59.89,731.44 59.02,731.26 58.63,730.46 58.74,729.02"/>
    </edge>
    <edge id=":Int3_S_0" function="internal">
        <lane id=":Int3_S_0_0" index="0" speed="3.65" length="4.67" shape="198.40,350.00 199.20,348.80 200.00,348.40 200.80,348.80 201.60,350.00"/>
    </edge>
    <edge id=":Int3_W_0" function="internal">
        <lane id=":Int3_W_0_0" index="0" speed="3.65" length="4.67" shape="0.00,551.60 -1.20,550.80 -1.60,550.00 -1.20,549.20 0.00,548.40"/>
    </edge>
    <edge id=":Int4_0" function="internal">
        <lane id=":Int4_0_0" index="0" speed="7.33" length="11.73" shape="898.40,563.60 897.85,561.15 896.20,559.40 893.45,558.35 889.60,558.00"/>
    </edge>
    <edge id=":Int4_1" function="internal">
        <lane id=":Int4_1_0" index="0" speed="13.89" length="27.30" shape="898.40,563.60 897.90,558.65 896.80,551.88 895.70,544.17 895.20,536.40"/>
        <lane id=":Int4_1_1" index="1" speed="13.89" length="27.30" shape="898.40,563.60 898.40,536.40"/>
    </edge>
    <edge id=":Int4_3" function="internal">
        <lane id=":Int4_3_0" index="0" speed="9.84" length="8.98" shape="898.40,563.60 899.15,556.95 900.13,554.88"/>
    </edge>
    <edge id=":Int4_4" function="internal">
        <lane id=":Int4_4_0" index="0" speed="3.65" length="1.44" shape="898.40,563.60 899.20,562.40"/>
    </edge>
    <edge id=":Int4_21" function="internal">
        <lane id=":Int4_21_0" index="0" speed="9.84" length="13.01" shape="900.13,554.88 901.40,552.20 905.15,549.35 910.40,548.40"/>
    </edge>
    <edge id=":Int4_22" function="internal">
        <lane id=":Int4_22_0" index="0" speed="3.65" length="3.23" shape="899.20,562.40 900.00,562.00 900.80,562.40 901.60,563.60"/>
    </edge>
    <edge id=":Int4_5" function="internal">
        <lane id=":Int4_5_0" index="0" speed="7.33" length="11.73" shape="910.40,558.00 906.55,558.35 903.80,559.40 902.15,561.15 901.60,563.60"/>
    </edge>
    <edge id=":Int4_6" function="internal">
        <lane id=":Int4_6_0" index="0" speed="13.89" length="20.80" shape="910.40,558.00 889.60,558.00"/>
        <lane id=":Int4_6_1" index="1" speed="13.89" length="20.80" shape="910.40,554.80 889.60,554.80"/>
        <lane id=":Int4_6_2" index="2" speed="13.89" length="20.80" shape="910.40,551.60 889.60,551.60"/>
    </edge>
    <edge id=":Int4_9" function="internal">
        <lane id=":Int4_9_0" index="0" speed="9.84" length="4.01" shape="910.40,551.60 906.45,550.89"/>
    </edge>
    <edge id=":Int4_10" function="internal">
        <lane id=":Int4_10_0" index="0" speed="3.65" length="1.44" shape="910.40,551.60 909.20,550.80"/>
    </edge>
    <edge id=":Int4_23" function="internal">
        <lane id=":Int4_23_0" index="0" speed="9.84" length="17.98" shape="906.45,550.89 905.15,550.65 901.40,547.80 899.15,543.05 898.40,536.40"/>
    </edge>
    <edge id=":Int4_24" function="internal">
        <lane id=":Int4_24_0" index="0" speed="3.65" length="3.23" shape="909.20,550.80 908.80,550.00 909.20,549.20 910.40,548.40"/>
    </edge>
    <edge id=":Int4_11" function="internal">
        <lane id=":Int4_11_0" index="0" speed="6.51" length="9.03" shape="904.80,536.40 905.15,538.85 906.20,540.60 907.95,541.65 910.40,542.00"/>
    </edge>
    <edge id=":Int4_12" function="internal">
        <lane id=":Int4_12_0" index="0" speed="13.89" length="27.41" shape="904.80,536.40 904.30,544.17 903.20,551.88 902.10,558.65 901.60,563.60"/>
    </edge>
    <edge id=":Int4_13" function="internal">
        <lane id=":Int4_13_0" index="0" speed="9.84" length="6.30" shape="901.60,536.40 900.89,542.66"/>
    </edge>
    <edge id=":Int4_14" function="internal">
        <lane id=":Int4_14_0" index="0" speed="3.65" length="1.44" shape="901.60,536.40 900.80,537.60"/>
    </edge>
    <edge id=":Int4_25" function="internal">
        <lane id=":Int4_25_0" index="0" speed="9.84" length="15.70" shape="900.89,542.66 900.85,543.05 898.60,547.80 894.85,550.65 889.60,551.60"/>
    </edge>
    <edge id=":Int4_26" function="internal">
        <lane id=":Int4_26_0" index="0" speed="3.65" length="3.23" shape="900.80,537.60 900.00,538.00 899.20,537.60 898.40,536.40"/>
    </edge>
    <edge id=":Int4_15" function="internal">
        <lane id=":Int4_15_0" index="0" speed="6.51" length="9.03" shape="889.60,542.00 892.05,541.65 893.80,540.60 894.85,538.85 895.20,536.40"/>
    </edge>
    <edge id=":Int4_16" function="internal">
        <lane id=":Int4_16_0" index="0" speed="13.89" length="20.80" shape="889.60,542.00 910.40,542.00"/>
        <lane id=":Int4_16_1" index="1" speed="13.89" length="20.80" shape="889.60,545.20 910.40,545.20"/>
        <lane id=":Int4_16_2" index="2" speed="13.89" length="20.80" shape="889.60,548.40 910.40,548.40"/>
    </edge>
    <edge id=":Int4_19" function="internal">
        <lane id=":Int4_19_0" index="0" speed="9.84" length="4.01" shape="889.60,548.40 893.55,549.11"/>
    </edge>
    <edge id=":Int4_20" function="internal">
        <lane id=":Int4_20_0" index="0" speed="3.65" length="1.44" shape="889.60,548.40 890.80,549.20"/>
    </edge>
    <edge id=":Int4_27" function="internal">
        <lane id=":Int4_27_0" index="0" speed="9.84" length="17.98" shape="893.55,549.11 894.85,549.35 898.60,552.20 900.85,556.95 901.60,563.60"/>
    </edge>
    <edge id=":Int4_28" function="internal">
        <lane id=":Int4_28_0" index="0" speed="3.65" length="3.23" shape="890.80,549.20 891.20,550.00 890.80,550.80 889.60,551.60"/>
    </edge>
    <edge id=":Int4_E_0" function="internal">
        <lane id=":Int4_E_0_0" index="0" speed="3.65" length="4.67" shape="1100.00,548.40 1101.20,549.20 1101.60,550.00 1101.20,550.80 1100.00,551.60"/>
    </edge>
    <edge id=":Int4_N_0" function="internal">
        <lane id=":Int4_N_0_0" index="0" speed="3.65" length="4.67" shape="901.60,750.00 900.80,751.20 900.00,751.60 899.20,751.20 898.40,750.00"/>
    </edge>
    <edge id=":Int4_S_0" function="internal">
        <lane id=":Int4_S_0_0" index="0" speed="3.65" length="4.67" shape="898.40,350.00 899.20,348.80 900.00,348.40 900.80,348.80 901.60,350.00"/>
    </edge>
    <edge id=":Int5_0" function="internal">
        <lane id=":Int5_0_0" index="0" speed="7.74" length="10.39" shape="447.81,209.81 446.76,207.62 445.04,206.05 442.66,205.11 439.60,204.80"/>
    </edge>
    <edge id=":Int5_1" function="internal">
        <lane id=":Int5_1_0" index="0" speed="13.89" length="20.05" shape="447.81,209.81 446.24,204.00 445.47,199.85 445.22,195.62 445.20,189.60"/>
        <lane id=":Int5_1_1" index="1" speed="13.89" length="20.05" shape="450.89,208.93 449.37,203.33 448.64,199.40 448.41,195.41 448.40,189.60"/>
    </edge>
    <edge id=":Int5_3" function="internal">
        <lane id=":Int5_3_0" index="0" speed="3.65" length="1.44" shape="450.89,208.93 451.33,207.55"/>
    </edge>
    <edge id=":Int5_11" function="internal">
        <lane id=":Int5_11_0" index="0" speed="3.65" length="3.23" shape="451.33,207.55 451.99,206.95 452.86,207.11 453.96,208.05"/>
    </edge>
    <edge id=":Int5_4" function="internal">
        <lane id=":Int5_4_0" index="0" speed="13.89" length="18.26" shape="454.80,189.60 454.81,194.88 455.01,198.51 455.66,202.08 457.04,207.17"/>
        <lane id=":Int5_4_1" index="1" speed="13.89" length="18.26" shape="451.60,189.60 451.61,195.15 451.82,198.96 452.52,202.70 453.96,208.05"/>
    </edge>
    <edge id=":Int5_6" function="internal">
        <lane id=":Int5_6_0" index="0" speed="9.26" length="4.94" shape="451.60,189.60 450.90,194.49"/>
    </edge>
    <edge id=":Int5_7" function="internal">
        <lane id=":Int5_7_0" index="0" speed="3.65" length="1.44" shape="451.60,189.60 450.80,190.80"/>
    </edge>
    <edge id=":Int5_12" function="internal">
        <lane id=":Int5_12_0" index="0" speed="9.26" length="14.41" shape="450.90,194.49 450.85,194.85 448.60,198.60 444.85,200.85 439.60,201.60"/>
    </edge>
    <edge id=":Int5_13" function="internal">