<?xml version="1.0" encoding="UTF-8"?>

<!-- generated on 2026-05-17T22:25:38.358560+01:00 by Eclipse SUMO netconvert 1.25.0
<netconvertConfiguration xmlns:xsi="http://www.w3.org/2001/XMLSchema-instance" xsi:noNamespaceSchemaLocation="http://sumo.dlr.de/xsd/netconvertConfiguration.xsd">

    <input>
        <node-files value="networks/intersection_test/intersection_test.nod.xml"/>
        <edge-files value="networks/intersection_test/intersection_test.edg.xml"/>
    </input>

    <output>
        <output-file value="networks/intersection_test/intersection_test.net.xml"/>
    </output>

</netconvertConfiguration>
-->

<net version="1.20" junctionCornerDetail="5" limitTurnSpeed="5.50" xmlns:xsi="http://www.w3.org/2001/XMLSchema-instance" xsi:noNamespaceSchemaLocation="http://sumo.dlr.de/xsd/net_file.xsd">

    <location netOffset="150.00,150.00" convBoundary="0.00,0.00,300.00,300.00" origBoundary="-150.00,-150.00,150.00,150.00" projParameter="!"/>

    <edge id=":C_0" function="internal">
        <lane id=":C_0_0" index="0" speed="5.47" length="9.74" shape="142.00,168.13 141.65,165.03 140.61,163.62 138.87,163.88 136.44,165.82"/>
    </edge>
    <edge id=":C_1" function="internal">
        <lane id=":C_1_0" index="0" speed="8.62" length="16.66" shape="142.00,168.13 141.57,162.30 140.27,158.13 138.10,155.63 135.07,154.80"/>
    </edge>
    <edge id=":C_2" function="internal">
        <lane id=":C_2_0" index="0" speed="13.89" length="28.75" shape="142.00,168.13 142.50,159.02 143.60,152.23 144.70,146.26 145.20,139.60"/>
        <lane id=":C_2_1" index="1" speed="13.89" length="28.75" shape="145.20,168.13 145.70,159.02 146.80,152.23 147.90,146.26 148.40,139.60"/>
    </edge>
    <edge id=":C_4" function="internal">
        <lane id=":C_4_0" index="0" speed="11.10" length="6.45" shape="148.40,168.13 149.11,161.72"/>
    </edge>
    <edge id=":C_5" function="internal">
        <lane id=":C_5_0" index="0" speed="3.65" length="1.44" shape="148.40,168.13 149.20,166.93"/>
    </edge>
    <edge id=":C_30" function="internal">
        <lane id=":C_30_0" index="0" speed="11.10" length="21.81" shape="149.11,161.72 149.35,159.50 152.20,153.33 156.95,149.63 163.60,148.40"/>
    </edge>
    <edge id=":C_31" function="internal">
        <lane id=":C_31_0" index="0" speed="3.65" length="3.23" shape="149.20,166.93 150.00,166.53 150.80,166.93 151.60,168.13"/>
    </edge>
    <edge id=":C_6" function="internal">
        <lane id=":C_6_0" index="0" speed="8.41" length="15.77" shape="163.60,154.80 161.15,155.63 159.40,158.13 158.35,162.30 158.00,168.13"/>
    </edge>
    <edge id=":C_7" function="internal">
        <lane id=":C_7_0" index="0" speed="13.89" length="30.08" shape="163.60,154.80 155.85,155.49 148.74,157.56 142.27,161.00 136.44,165.82"/>
    </edge>
    <edge id=":C_8" function="internal">
        <lane id=":C_8_0" index="0" speed="13.89" length="28.53" shape="163.60,154.80 135.07,154.80"/>
        <lane id=":C_8_1" index="1" speed="13.89" length="28.53" shape="163.60,151.60 135.07,151.60"/>
    </edge>
    <edge id=":C_10" function="internal">
        <lane id=":C_10_0" index="0" speed="9.84" length="6.30" shape="163.60,151.60 157.34,150.89"/>
    </edge>
    <edge id=":C_11" function="internal">
        <lane id=":C_11_0" index="0" speed="3.65" length="1.44" shape="163.60,151.60 162.40,150.80"/>
    </edge>
    <edge id=":C_32" function="internal">
        <lane id=":C_32_0" index="0" speed="9.84" length="15.70" shape="157.34,150.89 156.95,150.85 152.20,148.60 149.35,144.85 148.40,139.60"/>
    </edge>
    <edge id=":C_33" function="internal">
        <lane id=":C_33_0" index="0" speed="3.65" length="3.23" shape="162.40,150.80 162.00,150.00 162.40,149.20 163.60,148.40"/>
    </edge>
    <edge id=":C_12" function="internal">
        <lane id=":C_12_0" index="0" speed="7.33" length="11.73" shape="154.80,139.60 155.35,142.05 157.00,143.80 159.75,144.85 163.60,145.20"/>
    </edge>
    <edge id=":C_13" function="internal">
        <lane id=":C_13_0" index="0" speed="13.89" length="28.67" shape="154.80,139.60 155.30,146.26 156.40,152.23 157.50,159.02 158.00,168.13"/>
        <lane id=":C_13_1" index="1" speed="13.89" length="28.67" shape="151.60,139.60 152.10,146.26 153.20,152.23 154.30,159.02 154.80,168.13"/>
        <lane id=":C_13_2" index="2" speed="13.89" length="28.67" shape="151.60,139.60 151.60,168.13"/>
    </edge>
    <edge id=":C_16" function="internal">
        <lane id=":C_16_0" index="0" speed="13.89" length="6.31" shape="151.60,139.60 150.65,145.39 150.47,145.80"/>
    </edge>
    <edge id=":C_17" function="internal">
        <lane id=":C_17_0" index="0" speed="10.08" length="5.35" shape="151.60,139.60 150.57,144.85"/>
    </edge>
    <edge id=":C_18" function="internal">
        <lane id=":C_18_0" index="0" speed="3.65" length="1.44" shape="151.60,139.60 150.80,140.80"/>
    </edge>
    <edge id=":C_34" function="internal">
        <lane id=":C_34_0" index="0" speed="13.89" length="24.64" shape="150.47,145.80 147.81,151.69 143.07,158.50 136.44,165.82"/>
    </edge>
    <edge id=":C_35" function="internal">
        <lane id=":C_35_0" index="0" speed="10.08" length="17.77" shape="150.57,144.85 147.47,148.60 142.30,150.85 135.07,151.60"/>
    </edge>
    <edge id=":C_36" function="internal">
        <lane id=":C_36_0" index="0" speed="3.65" length="3.23" shape="150.80,140.80 150.00,141.20 149.20,140.80 148.40,139.60"/>
    </edge>
    <edge id=":C_19" function="internal">
        <lane id=":C_19_0" index="0" speed="7.65" length="12.89" shape="135.07,145.20 139.50,144.85 142.67,143.80 144.57,142.05 145.20,139.60"/>
    </edge>
    <edge id=":C_20" function="internal">
        <lane id=":C_20_0" index="0" speed="13.89" length="28.53" shape="135.07,145.20 163.60,145.20"/>
        <lane id=":C_20_1" index="1" speed="13.89" length="28.53" shape="135.07,148.40 163.60,148.40"/>
    </edge>
    <edge id=":C_22" function="internal">
        <lane id=":C_22_0" index="0" speed="11.75" length="5.01" shape="135.07,148.40 140.04,149.11"/>
    </edge>
    <edge id=":C_23" function="internal">
        <lane id=":C_23_0" index="0" speed="8.05" length="2.36" shape="135.07,148.40 137.31,149.15"/>
    </edge>
    <edge id=":C_24" function="internal">
        <lane id=":C_24_0" index="0" speed="3.65" length="1.44" shape="135.07,148.40 136.27,149.20"/>
    </edge>
    <edge id=":C_37" function="internal">
        <lane id=":C_37_0" index="0" speed="11.75" length="26.80" shape="140.04,149.11 143.70,149.63 149.87,153.33 153.57,159.50 154.80,168.13"/>
    </edge>
    <edge id=":C_38" function="internal">
        <lane id=":C_38_0" index="0" speed="8.05" length="20.65" shape="137.31,149.15 140.35,150.16 141.97,154.54 140.49,160.20 136.44,165.82"/>
    </edge>
    <edge id=":C_39" function="internal">
        <lane id=":C_39_0" index="0" speed="3.65" length="3.23" shape="136.27,149.20 136.67,150.00 136.27,150.80 135.07,151.60"/>
    </edge>
    <edge id=":C_25" function="internal">
        <lane id=":C_25_0" index="0" speed="6.18" length="12.88" shape="134.18,163.56 137.52,159.73 138.78,156.99 137.97,155.35 135.07,154.80"/>
    </edge>
    <edge id=":C_26" function="internal">
        <lane id=":C_26_0" index="0" speed="13.89" length="27.06" shape="134.18,163.56 139.00,157.93 142.44,152.06 144.51,145.95 145.20,139.60"/>
    </edge>
    <edge id=":C_27" function="internal">
        <lane id=":C_27_0" index="0" speed="13.89" length="33.91" shape="134.18,163.56 141.70,156.93 149.11,152.19 156.41,149.35 163.60,148.40"/>
    </edge>
    <edge id=":C_28" function="internal">
        <lane id=":C_28_0" index="0" speed="8.18" length="23.78" shape="134.18,163.56 139.88,159.88 145.54,159.44 149.87,162.20 151.60,168.13"/>
    </edge>
    <edge id=":C_29" function="internal">
        <lane id=":C_29_0" index="0" speed="3.65" length="1.44" shape="134.18,163.56 135.59,163.28"/>
    </edge>
    <edge id=":C_40" function="internal">
        <lane id=":C_40_0" index="0" speed="3.65" length="3.23" shape="135.59,163.28 136.44,163.56 136.72,164.41 136.44,165.82"/>
    </edge>
    <edge id=":E_0" function="internal">
        <lane id=":E_0_0" index="0" speed="3.65" length="4.67" shape="300.00,148.40 301.20,149.20 301.60,150.00 301.20,150.80 300.00,151.60"/>
    </edge>
    <edge id=":N_0" function="internal">
        <lane id=":N_0_0" index="0" speed="3.65" length="4.67" shape="151.60,300.00 150.80,301.20 150.00,301.60 149.20,301.20 148.40,300.00"/>
    </edge>
    <edge id=":NW_0" function="internal">
        <lane id=":NW_0_0" index="0" speed="3.65" length="4.67" shape="45.13,257.13 43.72,257.41 42.87,257.13 42.59,256.28 42.87,254.87"/>
    </edge>
    <edge id=":S_0" function="internal">
        <lane id=":S_0_0" index="0" speed="3.65" length="4.67" shape="148.40,0.00 149.20,-1.20 150.00,-1.60 150.80,-1.20 151.60,0.00"/>
    </edge>
    <edge id=":W_0" function="internal">
        <lane id=":W_0_0" index="0" speed="3.65" length="4.67" shape="0.00,151.60 -1.20,150.80 -1.60,150.00 -1.20,149.20 0.00,148.40"/>
    </edge>

    <edge id="C2E" from="C" to="E" priority="-1">
        <lane id="C2E_0" index="0" speed="13.89" length="136.40" shape="163.60,145.20 300.00,145.20"/>
        <lane id="C2E_1" index="1" speed="13.89" length="136.40" shape="163.60,148.40 300.00,148.40"/>
    </edge>
    <edge id="C2N" from="C" to="N" priority="-1">
        <lane id="C2N_0" index="0" speed="13.89" length="131.87" shape="158.00,168.13 158.00,300.00"/>
        <lane id="C2N_1" index="1" speed="13.89" length="131.87" shape="154.80,168.13 154.80,300.00"/>
        <lane id="C2N_2" index="2" speed="13.89" length="131.87" shape="151.60,168.13 151.60,300.00"/>
    </edge>
    <edge id="C2NW" from="C" to="NW" priority="-1">
        <lane id="C2NW_0" index="0" speed="13.89" length="129.13" shape="136.44,165.82 45.13,257.13"/>
    </edge>
    <edge id="C2S" from="C" to="S" priority="-1">
        <lane id="C2S_0" index="0" speed="13.89" length="139.60" shape="145.20,139.60 145.20,0.00"/>
        <lane id="C2S_1" index="1" speed="13.89" length="139.60" shape="148.40,139.60 148.40,0.00"/>
    </edge>
    <edge id="C2W" from="C" to="W" priority="-1">
        <lane id="C2W_0" index="0" speed="13.89" length="135.07" shape="135.07,154.80 0.00,154.80"/>
        <lane id="C2W_1" index="1" speed="13.89" length="135.07" shape="135.07,151.60 0.00,151.60"/>
    </edge>
    <edge id="E2C" from="E" to="C" priority="-1">
        <lane id="E2C_0" index="0" speed="13.89" length="136.40" shape="300.00,154.80 163.60,154.80"/>
        <lane id="E2C_1" index="1" speed="13.89" length="136.40" shape="300.00,151.60 163.60,151.60"/>
    </edge>
    <edge id="N2C" from="N" to="C" priority="-1">
        <lane id="N2C_0" index="0" speed="13.89" length="131.87" shape="142.00,300.00 142.00,168.13"/>
        <lane id="N2C_1" index="1" speed="13.89" length="131.87" shape="145.20,300.00 145.20,168.13"/>
        <lane id="N2C_2" index="2" speed="13.89" length="131.87" shape="148.40,300.00 148.40,168.13"/>
    </edge>
    <edge id="NW2C" from="NW" to="C" priority="-1">
        <lane id="NW2C_0" index="0" speed="13.89" length="129.13" shape="42.87,254.87 134.18,163.56"/>
    </edge>
    <edge id="S2C" from="S" to="C" priority="-1">
        <lane id="S2C_0" index="0" speed="13.89" length="139.60" shape="154.80,0.00 154.80,139.60"/>
        <lane id="S2C_1" index="1" speed="13.89" length="139.60" shape="151.60,0.00 151.60,139.60"/>
    </edge>
    <edge id="W2C" from="W" to="C" priority="-1">
        <lane id="W2C_0" index="0" speed="13.89" length="135.07" shape="0.00,145.20 135.07,145.20"/>
        <lane id="W2C_1" index="1" speed="13.89" length="135.07" shape="0.00,148.40 135.07,148.40"/>
    </edge>

    <tlLogic id="C" type="static" programID="0" offset="0">
        <phase duration="21" state="GGGGggrrrrrrGGGGgggrrrrrrrrrrr"/>
        <phase duration="3"  state="yyyyggrrrrrryyyygggrrrrrrrrrrr"/>
        <phase duration="6"  state="rrrrGGrrrrrrrrrrGGGrrrrrrrrrrr"/>
        <phase duration="3"  state="rrrryyrrrrrrrrrryyyrrrrrrrrrrr"/>
        <phase duration="21" state="rrrrrrGGGGggrrrrrrrGGGgggrrrrr"/>
        <phase duration="3"  state="rrrrrryyyyggrrrrrrryyygggrrrrr"/>
        <phase duration="6"  state="rrrrrrrrrrGGrrrrrrrrrrGGGrrrrr"/>
        <phase duration="3"  state="rrrrrrrrrryyrrrrrrrrrryyyrrrrr"/>
        <phase duration="21" state="GrrrrrrrrrrrrrrrrrrrrrrrrGGGGg"/>
        <phase duration="3"  state="Grrrrrrrrrrrrrrrrrrrrrrrryyyyy"/>
    </tlLogic>

    <junction id="C" type="traffic_light" x="150.00" y="150.00" incLanes="N2C_0 N2C_1 N2C_2 E2C_0 E2C_1 S2C_0 S2C_1 W2C_0 W2C_1 NW2C_0" intLanes=":C_0_0 :C_1_0 :C_2_0 :C_2_1 :C_30_0 :C_31_0 :C_6_0 :C_7_0 :C_8_0 :C_8_1 :C_32_0 :C_33_0 :C_12_0 :C_13_0 :C_13_1 :C_13_2 :C_34_0 :C_35_0 :C_36_0 :C_19_0 :C_20_0 :C_20_1 :C_37_0 :C_38_0 :C_39_0 :C_25_0 :C_26_0 :C_27_0 :C_28_0 :C_40_0" shape="140.40,168.13 159.60,168.13 159.71,164.54 160.04,161.61 160.60,159.33 161.38,157.70 162.38,156.73 163.60,156.40 163.60,143.60 161.40,143.49 159.60,143.16 158.20,142.60 157.20,141.82 156.60,140.82 156.40,139.60 143.60,139.60 142.65,141.82 141.47,142.60 139.81,143.16 137.68,143.49 135.07,143.60 135.07,156.40 136.63,157.07 136.57,157.91 135.95,159.08 134.78,160.59 133.05,162.43 137.57,166.95 139.14,165.83 139.69,165.83 140.09,166.22 140.32,166.98">
        <request index="0"  response="000000100000000000000000000000" foes="100000100000010000000010000000" cont="0"/>
        <request index="1"  response="000000100000000000000000000000" foes="011110100000010000001110000000" cont="0"/>
        <request index="2"  response="000000010000000000000000000000" foes="011100011111110000011110000000" cont="0"/>
        <request index="3"  response="000000010000000000010000000000" foes="011100011111110000011110000000" cont="0"/>
        <request index="4"  response="000000010000001110010000000000" foes="011000011100001110111110000000" cont="1"/>
        <request index="5"  response="010000000000001110000000000000" foes="010000000000001110000000000000" cont="1"/>
        <request index="6"  response="000000000000001110000000000000" foes="000000000000001110000000000000" cont="0"/>
        <request index="7"  response="000000000000011110000000011111" foes="110000110000011110000000011111" cont="0"/>
        <request index="8"  response="000000000000111110000000011110" foes="001111110000111110000000011110" cont="0"/>
        <request index="9"  response="000000000000111110000000011110" foes="001111110000111110000000011110" cont="0"/>
        <request index="10" response="001000001100111110000000011100" foes="001000001101111110000000011100" cont="1"/>
        <request index="11" response="001000001100000000000000010000" foes="001000001100000000000000010000" cont="1"/>
        <request index="12" response="000000000000000000000000000000" foes="000000001100000000000000000000" cont="0"/>
        <request index="13" response="000000000000000000010000000000" foes="011000011100000000011111110000" cont="0"/>
        <request index="14" response="000000010000000000010000000000" foes="011000011100000000011111110000" cont="0"/>
        <request index="15" response="000000010000000000010000000000" foes="011000011100000000011111110000" cont="0"/>
        <request index="16" response="000000110000000000010000001111" foes="111000111100000000011110001111" cont="1"/>
        <request index="17" response="000000110000000000010000001100" foes="000101111100000000011100001100" cont="1"/>
        <request index="18" response="000000000000000000010000001100" foes="000000000000000000010000001100" cont="1"/>
        <request index="19" response="000000000000000000000000001100" foes="000100000000000000000000001100" cont="0"/>
        <request index="20" response="000000000000111111000000011100" foes="001100000000111111110000011100" cont="0"/>
        <request index="21" response="000000000000111111000000011100" foes="001100000000111111110000011100" cont="0"/>
        <request index="22" response="000000000000111110001110011100" foes="001100000000111110001110011100" cont="1"/>
        <request index="23" response="000000000000110000001110000011" foes="111100000000110000001110000011" cont="1"/>
        <request index="24" response="000000000000100000001100000000" foes="000000000000100000001100000000" cont="1"/>
        <request index="25" response="000000000000000000001100000010" foes="000000000000000000001100000010" cont="0"/>
        <request index="26" response="000000111110100000001100001110" foes="000000111110100000001100001110" cont="0"/>
        <request index="27" response="000000111100011110011100011110" foes="000000111100011110111100011110" cont="0"/>
        <request index="28" response="000000100000011110000010011110" foes="000000100000011110000010111110" cont="0"/>
        <request index="29" response="000000100000010000000010000001" foes="000000100000010000000010000001" cont="1"/>
    </junction>
    <junction id="E" type="priority" x="300.00" y="150.00" incLanes="C2E_0 C2E_1" intLanes=":E_0_0" shape="300.00,150.00 300.00,143.60 300.00,150.00">
        <request index="0" response="0" foes="0" cont="0"/>
    </junction>
    <junction id="N" type="priority" x="150.00" y="300.00" incLanes="C2N_0 C2N_1 C2N_2" intLanes=":N_0_0" shape="150.00,300.00 159.60,300.00 150.00,300.00">
        <request index="0" response="0" foes="0" cont="0"/>
    </junction>
    <junction id="NW" type="priority" x="44.00" y="256.00" incLanes="C2NW_0" intLanes=":NW_0_0" shape="44.00,256.00 46.26,258.26 44.00,256.00">
        <request index="0" response="0" foes="0" cont="0"/>
    </junction>
    <junction id="S" type="priority" x="150.00" y="0.00" incLanes="C2S_0 C2S_1" intLanes=":S_0_0" shape="150.00,0.00 143.60,0.00 150.00,0.00">
        <request index="0" response="0" foes="0" cont="0"/>
    </junction>
    <junction id="W" type="priority" x="0.00" y="150.00" incLanes="C2W_0 C2W_1" intLanes=":W_0_0" shape="0.00,150.00 0.00,156.40 0.00,150.00">
        <request index="0" response="0" foes="0" cont="0"/>
    </junction>

    <junction id=":C_30_0" type="internal" x="149.11" y="161.72" incLanes=":C_4_0 S2C_0 S2C_1" intLanes=":C_7_0 :C_8_0 :C_8_1 :C_10_0 :C_11_0 :C_12_0 :C_13_0 :C_13_1 :C_13_2 :C_20_0 :C_20_1 :C_22_0 :C_27_0 :C_28_0"/>
    <junction id=":C_31_0" type="internal" x="149.20" y="166.93" incLanes=":C_5_0 E2C_0 NW2C_0 S2C_0 S2C_1 W2C_1" intLanes=":C_6_0 :C_13_0 :C_13_1 :C_13_2 :C_22_0 :C_28_0"/>
    <junction id=":C_32_0" type="internal" x="157.34" y="150.89" incLanes=":C_10_0 W2C_0 W2C_1" intLanes=":C_2_0 :C_2_1 :C_4_0 :C_13_0 :C_13_1 :C_13_2 :C_16_0 :C_17_0 :C_18_0 :C_19_0 :C_20_0 :C_20_1 :C_26_0 :C_27_0"/>
    <junction id=":C_33_0" type="internal" x="162.40" y="150.80" incLanes=":C_11_0 N2C_2 NW2C_0 S2C_0 W2C_0 W2C_1" intLanes=":C_4_0 :C_12_0 :C_20_0 :C_20_1 :C_27_0"/>
    <junction id=":C_34_0" type="internal" x="150.47" y="145.80" incLanes=":C_16_0 N2C_0 N2C_1" intLanes=":C_0_0 :C_1_0 :C_2_0 :C_2_1 :C_7_0 :C_8_0 :C_8_1 :C_10_0 :C_20_0 :C_20_1 :C_22_0 :C_23_0 :C_27_0 :C_28_0 :C_29_0"/>
    <junction id=":C_35_0" type="internal" x="150.57" y="144.85" incLanes=":C_17_0 N2C_0 N2C_1" intLanes=":C_1_0 :C_2_0 :C_2_1 :C_8_0 :C_8_1 :C_10_0 :C_20_0 :C_20_1 :C_22_0 :C_23_0 :C_24_0 :C_25_0 :C_26_0"/>
    <junction id=":C_36_0" type="internal" x="150.80" y="140.80" incLanes=":C_18_0 E2C_1 N2C_0 N2C_1 NW2C_0 W2C_0" intLanes=":C_2_0 :C_2_1 :C_10_0 :C_19_0 :C_26_0"/>
    <junction id=":C_37_0" type="internal" x="140.04" y="149.11" incLanes=":C_22_0 E2C_0 E2C_1" intLanes=":C_2_0 :C_2_1 :C_4_0 :C_5_0 :C_6_0 :C_7_0 :C_8_0 :C_8_1 :C_13_0 :C_13_1 :C_13_2 :C_16_0 :C_17_0 :C_26_0 :C_27_0 :C_28_0"/>
    <junction id=":C_38_0" type="internal" x="137.31" y="149.15" incLanes=":C_23_0 E2C_0 E2C_1" intLanes=":C_0_0 :C_1_0 :C_7_0 :C_8_0 :C_8_1 :C_16_0 :C_17_0 :C_26_0 :C_27_0 :C_28_0 :C_29_0"/>
    <junction id=":C_39_0" type="internal" x="136.27" y="149.20" incLanes=":C_24_0 E2C_0 E2C_1 N2C_0 NW2C_0 S2C_1" intLanes=":C_1_0 :C_8_0 :C_8_1 :C_17_0 :C_25_0"/>
    <junction id=":C_40_0" type="internal" x="135.59" y="163.28" incLanes=":C_29_0 E2C_0 N2C_0 S2C_1 W2C_1" intLanes=":C_0_0 :C_7_0 :C_16_0 :C_23_0"/>

    <connection from="C2E" to="E2C" fromLane="1" toLane="1" via=":E_0_0" dir="t" state="M"/>
    <connection from="C2N" to="N2C" fromLane="2" toLane="2" via=":N_0_0" dir="t" state="M"/>
    <connection from="C2NW" to="NW2C" fromLane="0" toLane="0" via=":NW_0_0" dir="t" state="M"/>
    <connection from="C2S" to="S2C" fromLane="1" toLane="1" via=":S_0_0" dir="t" state="M"/>
    <connection from="C2W" to="W2C" fromLane="1" toLane="1" via=":W_0_0" dir="t" state="M"/>
    <connection from="E2C" to="C2N" fromLane="0" toLane="0" via=":C_6_0" tl="C" linkIndex="6" dir="r" state="o"/>
    <connection from="E2C" to="C2NW" fromLane="0" toLane="0" via=":C_7_0" tl="C" linkIndex="7" dir="R" state="o"/>
    <connection from="E2C" to="C2W" fromLane="0" toLane="0" via=":C_8_0" tl="C" linkIndex="8" dir="s" state="o"/>
    <connection from="E2C" to="C2W" fromLane="1" toLane="1" via=":C_8_1" tl="C" linkIndex="9" dir="s" state="o"/>
    <connection from="E2C" to="C2S" fromLane="1" toLane="1" via=":C_10_0" tl="C" linkIndex="10" dir="l" state="o"/>
    <connection from="E2C" to="C2E" fromLane="1" toLane="1" via=":C_11_0" tl="C" linkIndex="11" dir="t" state="o"/>
    <connection from="N2C" to="C2NW" fromLane="0" toLane="0" via=":C_0_0" tl="C" linkIndex="0" dir="r" state="O"/>
    <connection from="N2C" to="C2W" fromLane="0" toLane="0" via=":C_1_0" tl="C" linkIndex="1" dir="R" state="O"/>
    <connection from="N2C" to="C2S" fromLane="0" toLane="0" via=":C_2_0" tl="C" linkIndex="2" dir="s" state="O"/>
    <connection from="N2C" to="C2S" fromLane="1" toLane="1" via=":C_2_1" tl="C" linkIndex="3" dir="s" state="O"/>
    <connection from="N2C" to="C2E" fromLane="2" toLane="1" via=":C_4_0" tl="C" linkIndex="4" dir="l" state="o"/>
    <connection from="N2C" to="C2N" fromLane="2" toLane="2" via=":C_5_0" tl="C" linkIndex="5" dir="t" state="o"/>
    <connection from="NW2C" to="C2W" fromLane="0" toLane="0" via=":C_25_0" tl="C" linkIndex="25" dir="r" state="o"/>
    <connection from="NW2C" to="C2S" fromLane="0" toLane="0" via=":C_26_0" tl="C" linkIndex="26" dir="R" state="o"/>
    <connection from="NW2C" to="C2E" fromLane="0" toLane="1" via=":C_27_0" tl="C" linkIndex="27" dir="L" state="o"/>
    <connection from="NW2C" to="C2N" fromLane="0" toLane="2" via=":C_28_0" tl="C" linkIndex="28" dir="l" state="o"/>
    <connection from="NW2C" to="C2NW" fromLane="0" toLane="0" via=":C_29_0" tl="C" linkIndex="29" dir="t" state="o"/>
    <connection from="S2C" to="C2E" fromLane="0" toLane="0" via=":C_12_0" tl="C" linkIndex="12" dir="r" state="O"/>
    <connection from="S2C" to="C2N" fromLane="0" toLane="0" via=":C_13_0" tl="C" linkIndex="13" dir="s" state="O"/>
    <connection from="S2C" to="C2N" fromLane="1" toLane="1" via=":C_13_1" tl="C" linkIndex="14" dir="s" state="O"/>
    <connection from="S2C" to="C2N" fromLane="1" toLane="2" via=":C_13_2" tl="C" linkIndex="15" dir="s" state="O"/>
    <connection from="S2C" to="C2NW" fromLane="1" toLane="0" via=":C_16_0" tl="C" linkIndex="16" dir="L" state="o"/>
    <connection from="S2C" to="C2W" fromLane="1" toLane="1" via=":C_17_0" tl="C" linkIndex="17" dir="l" state="o"/>
    <connection from="S2C" to="C2S" fromLane="1" toLane="1" via=":C_18_0" tl="C" linkIndex="18" dir="t" state="o"/>
    <connection from="W2C" to="C2S" fromLane="0" toLane="0" via=":C_19_0" tl="C" linkIndex="19" dir="r" state="o"/>
    <connection from="W2C" to="C2E" fromLane="0" toLane="0" via=":C_20_0" tl="C" linkIndex="20" dir="s" state="o"/>
    <connection from="W2C" to="C2E" fromLane="1" toLane="1" via=":C_20_1" tl="C" linkIndex="21" dir="s" state="o"/>
    <connection from="W2C" to="C2N" fromLane="1" toLane="1" via=":C_22_0" tl="C" linkIndex="22" dir="L" state="o"/>
    <connection from="W2C" to="C2NW" fromLane="1" toLane="0" via=":C_23_0" tl="C" linkIndex="23" dir="l" state="o"/>
    <connection from="W2C" to="C2W" fromLane="1" toLane="1" via=":C_24_0" tl="C" linkIndex="24" dir="t" state="o"/>

    <connection from=":C_0" to="C2NW" fromLane="0" toLane="0" dir="r" state="M"/>
    <connection from=":C_1" to="C2W" fromLane="0" toLane="0" dir="R" state="M"/>
    <connection from=":C_2" to="C2S" fromLane="0" toLane="0" dir="s" state="M"/>
    <connection from=":C_2" to="C2S" fromLane="1" toLane="1" dir="s" state="M"/>
    <connection from=":C_4" to="C2E" fromLane="0" toLane="1" via=":C_30_0" dir="l" state="m"/>
    <connection from=":C_30" to="C2E" fromLane="0" toLane="1" dir="l" state="M"/>
    <connection from=":C_5" to="C2N" fromLane="0" toLane="2" via=":C_31_0" dir="t" state="m"/>
    <connection from=":C_31" to="C2N" fromLane="0" toLane="2" dir="t" state="M"/>
    <connection from=":C_6" to="C2N" fromLane="0" toLane="0" dir="r" state="M"/>
    <connection from=":C_7" to="C2NW" fromLane="0" toLane="0" dir="R" state="M"/>
    <connection from=":C_8" to="C2W" fromLane="0" toLane="0" dir="s" state="M"/>
    <connection from=":C_8" to="C2W" fromLane="1" toLane="1" dir="s" state="M"/>
    <connection from=":C_10" to="C2S" fromLane="0" toLane="1" via=":C_32_0" dir="l" state="m"/>
    <connection from=":C_32" to="C2S" fromLane="0" toLane="1" dir="l" state="M"/>
    <connection from=":C_11" to="C2E" fromLane="0" toLane="1" via=":C_33_0" dir="t" state="m"/>
    <connection from=":C_33" to="C2E" fromLane="0" toLane="1" dir="t" state="M"/>
    <connection from=":C_12" to="C2E" fromLane="0" toLane="0" dir="r" state="M"/>
    <connection from=":C_13" to="C2N" fromLane="0" toLane="0" dir="s" state="M"/>
    <connection from=":C_13" to="C2N" fromLane="1" toLane="1" dir="s" state="M"/>
    <connection from=":C_13" to="C2N" fromLane="2" toLane="2" dir="s" state="M"/>
    <connection from=":C_16" to="C2NW" fromLane="0" toLane="0" via=":C_34_0" dir="L" state="m"/>
    <connection from=":C_34" to="C2NW" fromLane="0" toLane="0" dir="L" state="M"/>
    <connection from=":C_17" to="C2W" fromLane="0" toLane="1" via=":C_35_0" dir="l" state="m"/>
    <connection from=":C_35" to="C2W" fromLane="0" toLane="1" dir="l" state="M"/>
    <connection from=":C_18" to="C2S" fromLane="0" toLane="1" via=":C_36_0" dir="t" state="m"/>
    <connection from=":C_36" to="C2S" fromLane="0" toLane="1" dir="t" state="M"/>
    <connection from=":C_19" to="C2S" fromLane="0" toLane="0" dir="r" state="M"/>
    <connection from=":C_20" to="C2E" fromLane="0" toLane="0" dir="s" state="M"/>
    <connection from=":C_20" to="C2E" fromLane="1" toLane="1" dir="s" state="M"/>
    <connection from=":C_22" to="C2N" fromLane="0" toLane="1" via=":C_37_0" dir="L" state="m"/>
    <connection from=":C_37" to="C2N" fromLane="0" toLane="1" dir="L" state="M"/>
    <connection from=":C_23" to="C2NW" fromLane="0" toLane="0" via=":C_38_0" dir="l" state="m"/>
    <connection from=":C_38" to="C2NW" fromLane="0" toLane="0" dir="l" state="M"/>
    <connection from=":C_24" to="C2W" fromLane="0" toLane="1" via=":C_39_0" dir="t" state="m"/>
    <connection from=":C_39" to="C2W" fromLane="0" toLane="1" dir="t" state="M"/>
    <connection from=":C_25" to="C2W" fromLane="0" toLane="0" dir="r" state="M"/>
    <connection from=":C_26" to="C2S" fromLane="0" toLane="0" dir="R" state="M"/>
    <connection from=":C_27" to="C2E" fromLane="0" toLane="1" dir="L" state="M"/>
    <connection from=":C_28" to="C2N" fromLane="0" toLane="2" dir="l" state="M"/>
    <connection from=":C_29" to="C2NW" fromLane="0" toLane="0" via=":C_40_0" dir="t" state="m"/>
    <connection from=":C_40" to="C2NW" fromLane="0" toLane="0" dir="t" state="M"/>
    <connection from=":E_0" to="E2C" fromLane="0" toLane="1" dir="t" state="M"/>
    <connection from=":N_0" to="N2C" fromLane="0" toLane="2" dir="t" state="M"/>
    <connection from=":NW_0" to="NW2C" fromLane="0" toLane="0" dir="t" state="M"/>
    <connection from=":S_0" to="S2C" fromLane="0" toLane="1" dir="t" state="M"/>
    <connection from=":W_0" to="W2C" fromLane="0" toLane="1" dir="t" state="M"/>

</net>
