<?xml version="1.0" encoding="UTF-8"?>
<routes xmlns:xsi="http://www.w3.org/2001/XMLSchema-instance" xsi:noNamespaceSchemaLocation="http://sumo.dlr.de/xsd/routes_file.xsd">

    <vType id="car" accel="2.6" decel="4.5" sigma="0.5" length="5" maxSpeed="13.89"/>
    <vType id="emergency" accel="3.0" decel="6.0" sigma="0.0" length="5" maxSpeed="16.67" color="1,0,0"/>

    <route id="NS"   edges="N2C C2S"/>
    <route id="SN"   edges="S2C C2N"/>
    <route id="EW"   edges="E2C C2W"/>
    <route id="WE"   edges="W2C C2E"/>
    <route id="NW2S" edges="NW2C C2S"/>
    <route id="N2NW" edges="N2C C2NW"/>

    <flow id="flow_NS"   type="car" route="NS"   begin="0" end="999999" vehsPerHour="150"/>
    <flow id="flow_SN"   type="car" route="SN"   begin="0" end="999999" vehsPerHour="150"/>
    <flow id="flow_EW"   type="car" route="EW"   begin="0" end="999999" vehsPerHour="150"/>
    <flow id="flow_WE"   type="car" route="WE"   begin="0" end="999999" vehsPerHour="150"/>
    <flow id="flow_NW2S" type="car" route="NW2S" begin="0" end="999999" vehsPerHour="60"/>
    <flow id="flow_N2NW" type="car" route="N2NW" begin="0" end="999999" vehsPerHour="60"/>

    <flow id="flow_EV_NS" type="emergency" route="NS" begin="100" end="999999" vehsPerHour="1"/>
    <flow id="flow_EV_EW" type="emergency" route="EW" begin="300" end="999999" vehsPerHour="1"/>
</routes>