<?xml version="1.0" encoding="UTF-8"?>

<!-- generated on 2026-05-18T10:16:37.191846+01:00 by Eclipse SUMO netconvert 1.25.0
<netconvertConfiguration xmlns:xsi="http://www.w3.org/2001/XMLSchema-instance" xsi:noNamespaceSchemaLocation="http://sumo.dlr.de/xsd/netconvertConfiguration.xsd">

    <input>
        <node-files value="networks\city\city.nod.xml"/>
        <edge-files value="networks\city\city.edg.xml"/>
    </input>

    <output>
        <output-file value="networks\city\city.net.xml"/>
    </output>

</netconvertConfiguration>
-->

<net version="1.20" junctionCornerDetail="5" limitTurnSpeed="5.50" xmlns:xsi="http://www.w3.org/2001/XMLSchema-instance" xsi:noNamespaceSchemaLocation="http://sumo.dlr.de/xsd/net_file.xsd">

    <location netOffset="500.00,1300.00" convBoundary="0.00,0.00,1920.00,1900.00" origBoundary="-500.00,-1300.00,1420.00,600.00" projParameter="!"/>

    <edge id=":C1_0" function="internal">
        <lane id=":C1_0_0" index="0" speed="6.51" length="9.03" shape="492.00,1313.60 491.65,1311.15 490.60,1309.40 488.85,1308.35 486.40,1308.00"/>
    </edge>
    <edge id=":C1_1" function="internal">
        <lane id=":C1_1_0" index="0" speed="13.89" length="27.20" shape="492.00,1313.60 492.00,1286.40"/>
        <lane id=":C1_1_1" index="1" speed="13.89" length="27.20" shape="495.20,1313.60 495.20,1286.40"/>
        <lane id=":C1_1_2" index="2" speed="13.89" length="27.20" shape="498.40,1313.60 498.40,1286.40"/>
    </edge>
    <edge id=":C1_4" function="internal">
        <lane id=":C1_4_0" index="0" speed="10.36" length="5.01" shape="498.40,1313.60 499.11,1308.64"/>
    </edge>
    <edge id=":C1_5" function="internal">
        <lane id=":C1_5_0" index="0" speed="3.65" length="1.44" shape="498.40,1313.60 499.20,1312.40"/>
    </edge>
    <edge id=":C1_24" function="internal">
        <lane id=":C1_24_0" index="0" speed="10.36" length="19.50" shape="499.11,1308.64 499.35,1306.95 502.20,1302.20 506.95,1299.35 513.60,1298.40"/>
    </edge>
    <edge id=":C1_25" function="internal">
        <lane id=":C1_25_0" index="0" speed="3.65" length="3.23" shape="499.20,1312.40 500.00,1312.00 500.80,1312.40 501.60,1313.60"/>
    </edge>
    <edge id=":C1_6" function="internal">
        <lane id=":C1_6_0" index="0" speed="6.51" length="9.03" shape="513.60,1308.00 511.15,1308.35 509.40,1309.40 508.35,1311.15 508.00,1313.60"/>
    </edge>
    <edge id=":C1_7" function="internal">
        <lane id=":C1_7_0" index="0" speed="13.89" length="27.20" shape="513.60,1308.00 486.40,1308.00"/>
        <lane id=":C1_7_1" index="1" speed="13.89" length="27.20" shape="513.60,1304.80 486.40,1304.80"/>
        <lane id=":C1_7_2" index="2" speed="13.89" length="27.20" shape="513.60,1301.60 486.40,1301.60"/>
    </edge>
    <edge id=":C1_10" function="internal">
        <lane id=":C1_10_0" index="0" speed="10.36" length="5.01" shape="513.60,1301.60 508.64,1300.89"/>
    </edge>
    <edge id=":C1_11" function="internal">
        <lane id=":C1_11_0" index="0" speed="3.65" length="1.44" shape="513.60,1301.60 512.40,1300.80"/>
    </edge>
    <edge id=":C1_26" function="internal">
        <lane id=":C1_26_0" index="0" speed="10.36" length="19.50" shape="508.64,1300.89 506.95,1300.65 502.20,1297.80 499.35,1293.05 498.40,1286.40"/>
    </edge>
    <edge id=":C1_27" function="internal">
        <lane id=":C1_27_0" index="0" speed="3.65" length="3.23" shape="512.40,1300.80 512.00,1300.00 512.40,1299.20 513.60,1298.40"/>
    </edge>
    <edge id=":C1_12" function="internal">
        <lane id=":C1_12_0" index="0" speed="6.51" length="9.03" shape="508.00,1286.40 508.35,1288.85 509.40,1290.60 511.15,1291.65 513.60,1292.00"/>
    </edge>
    <edge id=":C1_13" function="internal">
        <lane id=":C1_13_0" index="0" speed="13.89" length="27.20" shape="508.00,1286.40 508.00,1313.60"/>
        <lane id=":C1_13_1" index="1" speed="13.89" length="27.20" shape="504.80,1286.40 504.80,1313.60"/>
        <lane id=":C1_13_2" index="2" speed="13.89" length="27.20" shape="501.60,1286.40 501.60,1313.60"/>
    </edge>
    <edge id=":C1_16" function="internal">
        <lane id=":C1_16_0" index="0" speed="10.36" length="5.01" shape="501.60,1286.40 500.89,1291.36"/>
    </edge>
    <edge id=":C1_17" function="internal">
        <lane id=":C1_17_0" index="0" speed="3.65" length="1.44" shape="501.60,1286.40 500.80,1287.60"/>
    </edge>
    <edge id=":C1_28" function="internal">
        <lane id=":C1_28_0" index="0" speed="10.36" length="19.50" shape="500.89,1291.36 500.65,1293.05 497.80,1297.80 493.05,1300.65 486.40,1301.60"/>
    </edge>
    <edge id=":C1_29" function="internal">
        <lane id=":C1_29_0" index="0" speed="3.65" length="3.23" shape="500.80,1287.60 500.00,1288.00 499.20,1287.60 498.40,1286.40"/>
    </edge>
    <edge id=":C1_18" function="internal">
        <lane id=":C1_18_0" index="0" speed="6.51" length="9.03" shape="486.40,1292.00 488.85,1291.65 490.60,1290.60 491.65,1288.85 492.00,1286.40"/>
    </edge>
    <edge id=":C1_19" function="internal">
        <lane id=":C1_19_0" index="0" speed="13.89" length="27.20" shape="486.40,1292.00 513.60,1292.00"/>
        <lane id=":C1_19_1" index="1" speed="13.89" length="27.20" shape="486.40,1295.20 513.60,1295.20"/>
        <lane id=":C1_19_2" index="2" speed="13.89" length="27.20" shape="486.40,1298.40 513.60,1298.40"/>
    </edge>
    <edge id=":C1_22" function="internal">
        <lane id=":C1_22_0" index="0" speed="10.36" length="5.01" shape="486.40,1298.40 491.36,1299.11"/>
    </edge>
    <edge id=":C1_23" function="internal">
        <lane id=":C1_23_0" index="0" speed="3.65" length="1.44" shape="486.40,1298.40 487.60,1299.20"/>
    </edge>
    <edge id=":C1_30" function="internal">
        <lane id=":C1_30_0" index="0" speed="10.36" length="19.50" shape="491.36,1299.11 493.05,1299.35 497.80,1302.20 500.65,1306.95 501.60,1313.60"/>
    </edge>
    <edge id=":C1_31" function="internal">
        <lane id=":C1_31_0" index="0" speed="3.65" length="3.23" shape="487.60,1299.20 488.00,1300.00 487.60,1300.80 486.40,1301.60"/>
    </edge>
    <edge id=":C2_0" function="internal">
        <lane id=":C2_0_0" index="0" speed="7.33" length="11.73" shape="495.20,1610.40 494.65,1607.95 493.00,1606.20 490.25,1605.15 486.40,1604.80"/>
    </edge>
    <edge id=":C2_1" function="internal">
        <lane id=":C2_1_0" index="0" speed="13.89" length="21.01" shape="495.20,1610.40 494.70,1604.41 493.60,1600.20 492.50,1595.88 492.00,1589.60"/>
        <lane id=":C2_1_1" index="1" speed="13.89" length="21.01" shape="498.40,1610.40 497.90,1604.41 496.80,1600.20 495.70,1595.88 495.20,1589.60"/>
        <lane id=":C2_1_2" index="2" speed="13.89" length="21.01" shape="498.40,1610.40 498.40,1589.60"/>
    </edge>
    <edge id=":C2_4" function="internal">
        <lane id=":C2_4_0" index="0" speed="9.84" length="5.50" shape="498.40,1610.40 499.35,1605.15 499.45,1605.02"/>
    </edge>
    <edge id=":C2_5" function="internal">
        <lane id=":C2_5_0" index="0" speed="3.65" length="1.44" shape="498.40,1610.40 499.20,1609.20"/>
    </edge>
    <edge id=":C2_21" function="internal">
        <lane id=":C2_21_0" index="0" speed="9.84" length="16.49" shape="499.45,1605.02 502.20,1601.40 506.95,1599.15 513.60,1598.40"/>
    </edge>
    <edge id=":C2_22" function="internal">
        <lane id=":C2_22_0" index="0" speed="3.65" length="3.23" shape="499.20,1609.20 500.00,1608.80 500.80,1609.20 501.60,1610.40"/>
    </edge>
    <edge id=":C2_6" function="internal">
        <lane id=":C2_6_0" index="0" speed="7.33" length="11.73" shape="513.60,1604.80 509.75,1605.15 507.00,1606.20 505.35,1607.95 504.80,1610.40"/>
    </edge>
    <edge id=":C2_7" function="internal">
        <lane id=":C2_7_0" index="0" speed="13.89" length="27.20" shape="513.60,1604.80 486.40,1604.80"/>
        <lane id=":C2_7_1" index="1" speed="13.89" length="27.20" shape="513.60,1601.60 486.40,1601.60"/>
    </edge>
    <edge id=":C2_9" function="internal">
        <lane id=":C2_9_0" index="0" speed="9.84" length="6.30" shape="513.60,1601.60 507.34,1600.89"/>
    </edge>
    <edge id=":C2_10" function="internal">
        <lane id=":C2_10_0" index="0" speed="3.65" length="1.44" shape="513.60,1601.60 512.40,1600.80"/>
    </edge>
    <edge id=":C2_23" function="internal">
        <lane id=":C2_23_0" index="0" speed="9.84" length="15.70" shape="507.34,1600.89 506.95,1600.85 502.20,1598.60 499.35,1594.85 498.40,1589.60"/>
    </edge>
    <edge id=":C2_24" function="internal">
        <lane id=":C2_24_0" index="0" speed="3.65" length="3.23" shape="512.40,1600.80 512.00,1600.00 512.40,1599.20 513.60,1598.40"/>
    </edge>
    <edge id=":C2_11" function="internal">
        <lane id=":C2_11_0" index="0" speed="6.51" length="9.03" shape="508.00,1589.60 508.35,1592.05 509.40,1593.80 511.15,1594.85 513.60,1595.20"/>
    </edge>
    <edge id=":C2_12" function="internal">
        <lane id=":C2_12_0" index="0" speed="13.89" length="21.12" shape="508.00,1589.60 507.50,1595.88 506.40,1600.20 505.30,1604.41 504.80,1610.40"/>
        <lane id=":C2_12_1" index="1" speed="13.89" length="21.12" shape="504.80,1589.60 504.30,1595.88 503.20,1600.20 502.10,1604.41 501.60,1610.40"/>
    </edge>
    <edge id=":C2_14" function="internal">
        <lane id=":C2_14_0" index="0" speed="9.84" length="4.01" shape="501.60,1589.60 500.89,1593.55"/>
    </edge>
    <edge id=":C2_15" function="internal">
        <lane id=":C2_15_0" index="0" speed="3.65" length="1.44" shape="501.60,1589.60 500.80,1590.80"/>
    </edge>
    <edge id=":C2_25" function="internal">
        <lane id=":C2_25_0" index="0" speed="9.84" length="17.98" shape="500.89,1593.55 500.65,1594.85 497.80,1598.60 493.05,1600.85 486.40,1601.60"/>
    </edge>
    <edge id=":C2_26" function="internal">
        <lane id=":C2_26_0" index="0" speed="3.65" length="3.23" shape="500.80,1590.80 500.00,1591.20 499.20,1590.80 498.40,1589.60"/>
    </edge>
    <edge id=":C2_16" function="internal">
        <lane id=":C2_16_0" index="0" speed="6.51" length="9.03" shape="486.40,1595.20 488.85,1594.85 490.60,1593.80 491.65,1592.05 492.00,1589.60"/>
    </edge>
    <edge id=":C2_17" function="internal">
        <lane id=":C2_17_0" index="0" speed="13.89" length="27.20" shape="486.40,1595.20 513.60,1595.20"/>
        <lane id=":C2_17_1" index="1" speed="13.89" length="27.20" shape="486.40,1598.40 513.60,1598.40"/>
    </edge>
    <edge id=":C2_19" function="internal">
        <lane id=":C2_19_0" index="0" speed="9.84" length="6.30" shape="486.40,1598.40 492.66,1599.11"/>
    </edge>
    <edge id=":C2_20" function="internal">
        <lane id=":C2_20_0" index="0" speed="3.65" length="1.44" shape="486.40,1598.40 487.60,1599.20"/>
    </edge>
    <edge id=":C2_27" function="internal">
        <lane id=":C2_27_0" index="0" speed="9.84" length="15.70" shape="492.66,1599.11 493.05,1599.15 497.80,1601.40 500.65,1605.15 501.60,1610.40"/>
    </edge>
    <edge id=":C2_28" function="internal">
        <lane id=":C2_28_0" index="0" speed="3.65" length="3.23" shape="487.60,1599.20 488.00,1600.00 487.60,1600.80 486.40,1601.60"/>
    </edge>
    <edge id=":C2_E_0" function="internal">
        <lane id=":C2_E_0_0" index="0" speed="3.65" length="4.67" shape="700.00,1598.40 701.20,1599.20 701.60,1600.00 701.20,1600.80 700.00,1601.60"/>
    </edge>
    <edge id=":C2_N_0" function="internal">
        <lane id=":C2_N_0_0" index="0" speed="3.65" length="4.67" shape="501.60,1800.00 500.80,1801.20 500.00,1801.60 499.20,1801.20 498.40,1800.00"/>
    </edge>
    <edge id=":C2_W_0" function="internal">
        <lane id=":C2_W_0_0" index="0" speed="3.65" length="4.67" shape="300.00,1601.60 298.80,1600.80 298.40,1600.00 298.80,1599.20 300.00,1598.40"/>
    </edge>
    <edge id=":C3_0" function="internal">
        <lane id=":C3_0_0" index="0" speed="6.51" length="9.03" shape="195.20,1313.60 194.85,1311.15 193.80,1309.40 192.05,1308.35 189.60,1308.00"/>
    </edge>
    <edge id=":C3_1" function="internal">
        <lane id=":C3_1_0" index="0" speed="13.89" length="27.20" shape="195.20,1313.60 195.20,1286.40"/>
        <lane id=":C3_1_1" index="1" speed="13.89" length="27.20" shape="198.40,1313.60 198.40,1286.40"/>
    </edge>
    <edge id=":C3_3" function="internal">
        <lane id=":C3_3_0" index="0" speed="9.84" length="6.30" shape="198.40,1313.60 199.11,1307.34"/>
    </edge>
    <edge id=":C3_4" function="internal">
        <lane id=":C3_4_0" index="0" speed="3.65" length="1.44" shape="198.40,1313.60 199.20,1312.40"/>
    </edge>
    <edge id=":C3_22" function="internal">
        <lane id=":C3_22_0" index="0" speed="9.84" length="15.70" shape="199.11,1307.34 199.15,1306.95 201.40,1302.20 205.15,1299.35 210.40,1298.40"/>
    </edge>
    <edge id=":C3_23" function="internal">
        <lane id=":C3_23_0" index="0" speed="3.65" length="3.23" shape="199.20,1312.40 200.00,1312.00 200.80,1312.40 201.60,1313.60"/>
    </edge>
    <edge id=":C3_5" function="internal">
        <lane id=":C3_5_0" index="0" speed="6.51" length="9.03" shape="210.40,1308.00 207.95,1308.35 206.20,1309.40 205.15,1311.15 204.80,1313.60"/>
    </edge>
    <edge id=":C3_6" function="internal">
        <lane id=":C3_6_0" index="0" speed="13.89" length="20.80" shape="210.40,1308.00 189.60,1308.00"/>
        <lane id=":C3_6_1" index="1" speed="13.89" length="20.80" shape="210.40,1304.80 189.60,1304.80"/>
        <lane id=":C3_6_2" index="2" speed="13.89" length="20.80" shape="210.40,1301.60 189.60,1301.60"/>
    </edge>
    <edge id=":C3_9" function="internal">
        <lane id=":C3_9_0" index="0" speed="9.84" length="4.01" shape="210.40,1301.60 206.45,1300.89"/>
    </edge>
    <edge id=":C3_10" function="internal">
        <lane id=":C3_10_0" index="0" speed="3.65" length="1.44" shape="210.40,1301.60 209.20,1300.80"/>
    </edge>
    <edge id=":C3_24" function="internal">
        <lane id=":C3_24_0" index="0" speed="9.84" length="17.98" shape="206.45,1300.89 205.15,1300.65 201.40,1297.80 199.15,1293.05 198.40,1286.40"/>
    </edge>
    <edge id=":C3_25" function="internal">
        <lane id=":C3_25_0" index="0" speed="3.65" length="3.23" shape="209.20,1300.80 208.80,1300.00 209.20,1299.20 210.40,1298.40"/>
    </edge>
    <edge id=":C3_11" function="internal">
        <lane id=":C3_11_0" index="0" speed="6.51" length="9.03" shape="204.80,1286.40 205.15,1288.85 206.20,1290.60 207.95,1291.65 210.40,1292.00"/>
    </edge>
    <edge id=":C3_12" function="internal">
        <lane id=":C3_12_0" index="0" speed="13.89" length="27.20" shape="204.80,1286.40 204.80,1313.60"/>
        <lane id=":C3_12_1" index="1" speed="13.89" length="27.20" shape="201.60,1286.40 201.60,1313.60"/>
    </edge>
    <edge id=":C3_14" function="internal">
        <lane id=":C3_14_0" index="0" speed="9.84" length="6.30" shape="201.60,1286.40 200.89,1292.66"/>
    </edge>
    <edge id=":C3_15" function="internal">
        <lane id=":C3_15_0" index="0" speed="3.65" length="1.44" shape="201.60,1286.40 200.80,1287.60"/>
    </edge>
    <edge id=":C3_26" function="internal">
        <lane id=":C3_26_0" index="0" speed="9.84" length="15.70" shape="200.89,1292.66 200.85,1293.05 198.60,1297.80 194.85,1300.65 189.60,1301.60"/>
    </edge>
    <edge id=":C3_27" function="internal">
        <lane id=":C3_27_0" index="0" speed="3.65" length="3.23" shape="200.80,1287.60 200.00,1288.00 199.20,1287.60 198.40,1286.40"/>
    </edge>
    <edge id=":C3_16" function="internal">
        <lane id=":C3_16_0" index="0" speed="6.51" length="9.03" shape="189.60,1292.00 192.05,1291.65 193.80,1290.60 194.85,1288.85 195.20,1286.40"/>
    </edge>
    <edge id=":C3_17" function="internal">
        <lane id=":C3_17_0" index="0" speed="13.89" length="20.80" shape="189.60,1292.00 210.40,1292.00"/>
        <lane id=":C3_17_1" index="1" speed="13.89" length="20.80" shape="189.60,1295.20 210.40,1295.20"/>
        <lane id=":C3_17_2" index="2" speed="13.89" length="20.80" shape="189.60,1298.40 210.40,1298.40"/>
    </edge>
    <edge id=":C3_20" function="internal">
        <lane id=":C3_20_0" index="0" speed="9.84" length="4.01" shape="189.60,1298.40 193.55,1299.11"/>
    </edge>
    <edge id=":C3_21" function="internal">
        <lane id=":C3_21_0" index="0" speed="3.65" length="1.44" shape="189.60,1298.40 190.80,1299.20"/>
    </edge>
    <edge id=":C3_28" function="internal">
        <lane id=":C3_28_0" index="0" speed="9.84" length="17.98" shape="193.55,1299.11 194.85,1299.35 198.60,1302.20 200.85,1306.95 201.60,1313.60"/>
    </edge>
    <edge id=":C3_29" function="internal">
        <lane id=":C3_29_0" index="0" speed="3.65" length="3.23" shape="190.80,1299.20 191.20,1300.00 190.80,1300.80 189.60,1301.60"/>
    </edge>
    <edge id=":C3_N_0" function="internal">
        <lane id=":C3_N_0_0" index="0" speed="3.65" length="4.67" shape="201.60,1500.00 200.80,1501.20 200.00,1501.60 199.20,1501.20 198.40,1500.00"/>
    </edge>
    <edge id=":C3_S_0" function="internal">
        <lane id=":C3_S_0_0" index="0" speed="3.65" length="4.67" shape="198.40,1100.00 199.20,1098.80 200.00,1098.40 200.80,1098.80 201.60,1100.00"/>
    </edge>
    <edge id=":C3_W_0" function="internal">
        <lane id=":C3_W_0_0" index="0" speed="3.65" length="4.67" shape="0.00,1301.60 -1.20,1300.80 -1.60,1300.00 -1.20,1299.20 0.00,1298.40"/>
    </edge>
    <edge id=":C4_0" function="internal">
        <lane id=":C4_0_0" index="0" speed="6.51" length="9.03" shape="795.20,1313.60 794.85,1311.15 793.80,1309.40 792.05,1308.35 789.60,1308.00"/>
    </edge>
    <edge id=":C4_1" function="internal">
        <lane id=":C4_1_0" index="0" speed="13.89" length="27.20" shape="795.20,1313.60 795.20,1286.40"/>
        <lane id=":C4_1_1" index="1" speed="13.89" length="27.20" shape="798.40,1313.60 798.40,1286.40"/>
    </edge>
    <edge id=":C4_3" function="internal">
        <lane id=":C4_3_0" index="0" speed="9.84" length="6.30" shape="798.40,1313.60 799.11,1307.34"/>
    </edge>
    <edge id=":C4_4" function="internal">
        <lane id=":C4_4_0" index="0" speed="3.65" length="1.44" shape="798.40,1313.60 799.20,1312.40"/>
    </edge>
    <edge id=":C4_22" function="internal">
        <lane id=":C4_22_0" index="0" speed="9.84" length="15.70" shape="799.11,1307.34 799.15,1306.95 801.40,1302.20 805.15,1299.35 810.40,1298.40"/>
    </edge>
    <edge id=":C4_23" function="internal">
        <lane id=":C4_23_0" index="0" speed="3.65" length="3.23" shape="799.20,1312.40 800.00,1312.00 800.80,1312.40 801.60,1313.60"/>
    </edge>
    <edge id=":C4_5" function="internal">
        <lane id=":C4_5_0" index="0" speed="6.51" length="9.03" shape="810.40,1308.00 807.95,1308.35 806.20,1309.40 805.15,1311.15 804.80,1313.60"/>
    </edge>
    <edge id=":C4_6" function="internal">
        <lane id=":C4_6_0" index="0" speed="15.28" length="20.80" shape="810.40,1308.00 789.60,1308.00"/>
        <lane id=":C4_6_1" index="1" speed="15.28" length="20.80" shape="810.40,1304.80 789.60,1304.80"/>
        <lane id=":C4_6_2" index="2" speed="15.28" length="20.80" shape="810.40,1301.60 789.60,1301.60"/>
    </edge>
    <edge id=":C4_9" function="internal">
        <lane id=":C4_9_0" index="0" speed="9.84" length="4.01" shape="810.40,1301.60 806.45,1300.89"/>
    </edge>
    <edge id=":C4_10" function="internal">
        <lane id=":C4_10_0" index="0" speed="3.65" length="1.44" shape="810.40,1301.60 809.20,1300.80"/>
    </edge>
    <edge id=":C4_24" function="internal">
        <lane id=":C4_24_0" index="0" speed="9.84" length="17.98" shape="806.45,1300.89 805.15,1300.65 801.40,1297.80 799.15,1293.05 798.40,1286.40"/>
    </edge>
    <edge id=":C4_25" function="internal">
        <lane id=":C4_25_0" index="0" speed="3.65" length="3.23" shape="809.20,1300.80 808.80,1300.00 809.20,1299.20 810.40,1298.40"/>
    </edge>
    <edge id=":C4_11" function="internal">
        <lane id=":C4_11_0" index="0" speed="6.51" length="9.03" shape="804.80,1286.40 805.15,1288.85 806.20,1290.60 807.95,1291.65 810.40,1292.00"/>
    </edge>
    <edge id=":C4_12" function="internal">
        <lane id=":C4_12_0" index="0" speed="13.89" length="27.20" shape="804.80,1286.40 804.80,1313.60"/>
        <lane id=":C4_12_1" index="1" speed="13.89" length="27.20" shape="801.60,1286.40 801.60,1313.60"/>
    </edge>
    <edge id=":C4_14" function="internal">
        <lane id=":C4_14_0" index="0" speed="9.84" length="6.30" shape="801.60,1286.40 800.89,1292.66"/>
    </edge>
    <edge id=":C4_15" function="internal">
        <lane id=":C4_15_0" index="0" speed="3.65" length="1.44" shape="801.60,1286.40 800.80,1287.60"/>
    </edge>
    <edge id=":C4_26" function="internal">
        <lane id=":C4_26_0" index="0" speed="9.84" length="15.70" shape="800.89,1292.66 800.85,1293.05 798.60,1297.80 794.85,1300.65 789.60,1301.60"/>
    </edge>
    <edge id=":C4_27" function="internal">
        <lane id=":C4_27_0" index="0" speed="3.65" length="3.23" shape="800.80,1287.60 800.00,1288.00 799.20,1287.60 798.40,1286.40"/>
    </edge>
    <edge id=":C4_16" function="internal">
        <lane id=":C4_16_0" index="0" speed="6.51" length="9.03" shape="789.60,1292.00 792.05,1291.65 793.80,1290.60 794.85,1288.85 795.20,1286.40"/>
    </edge>
    <edge id=":C4_17" function="internal">
        <lane id=":C4_17_0" index="0" speed="15.28" length="20.80" shape="789.60,1292.00 810.40,1292.00"/>
        <lane id=":C4_17_1" index="1" speed="15.28" length="20.80" shape="789.60,1295.20 810.40,1295.20"/>
        <lane id=":C4_17_2" index="2" speed="15.28" length="20.80" shape="789.60,1298.40 810.40,1298.40"/>
    </edge>
    <edge id=":C4_20" function="internal">
        <lane id=":C4_20_0" index="0" speed="9.84" length="4.01" shape="789.60,1298.40 793.55,1299.11"/>
    </edge>
    <edge id=":C4_21" function="internal">
        <lane id=":C4_21_0" index="0" speed="3.65" length="1.44" shape="789.60,1298.40 790.80,1299.20"/>
    </edge>
    <edge id=":C4_28" function="internal">
        <lane id=":C4_28_0" index="0" speed="9.84" length="17.98" shape="793.55,1299.11 794.85,1299.35 798.60,1302.20 800.85,1306.95 801.60,1313.60"/>
    </edge>
    <edge id=":C4_29" function="internal">
        <lane id=":C4_29_0" index="0" speed="3.65" length="3.23" shape="790.80,1299.20 791.20,1300.00 790.80,1300.80 789.60,1301.60"/>
    </edge>
    <edge id=":C4_N_0" function="internal">
        <lane id=":C4_N_0_0" index="0" speed="3.65" length="4.67" shape="801.60,1500.00 800.80,1501.20 800.00,1501.60 799.20,1501.20 798.40,1500.00"/>
    </edge>
    <edge id=":C4_S_0" function="internal">
        <lane id=":C4_S_0_0" index="0" speed="3.65" length="4.67" shape="798.40,1100.00 799.20,1098.80 800.00,1098.40 800.80,1098.80 801.60,1100.00"/>
    </edge>
    <edge id=":C5_0" function="internal">
        <lane id=":C5_0_0" index="0" speed="6.51" length="9.03" shape="492.00,1010.40 491.65,1007.95 490.60,1006.20 488.85,1005.15 486.40,1004.80"/>
    </edge>
    <edge id=":C5_1" function="internal">
        <lane id=":C5_1_0" index="0" speed="13.89" length="21.12" shape="492.00,1010.40 492.50,1004.12 493.60,999.80 494.70,995.59 495.20,989.60"/>
        <lane id=":C5_1_1" index="1" speed="13.89" length="21.12" shape="495.20,1010.40 495.70,1004.12 496.80,999.80 497.90,995.59 498.40,989.60"/>
    </edge>
    <edge id=":C5_3" function="internal">
        <lane id=":C5_3_0" index="0" speed="13.89" length="20.96" shape="498.40,1010.40 497.90,1004.12 496.80,999.80 495.70,995.59 495.20,989.60"/>
        <lane id=":C5_3_1" index="1" speed="13.89" length="20.96" shape="498.40,1010.40 498.40,989.60"/>
    </edge>
    <edge id=":C5_5" function="internal">
        <lane id=":C5_5_0" index="0" speed="3.65" length="2.34" shape="498.40,1010.40 499.20,1009.20 500.00,1008.80"/>
    </edge>
    <edge id=":C5_20" function="internal">
        <lane id=":C5_20_0" index="0" speed="3.65" length="2.34" shape="500.00,1008.80 500.80,1009.20 501.60,1010.40"/>
    </edge>
    <edge id=":C5_6" function="internal">
        <lane id=":C5_6_0" index="0" speed="13.89" length="21.12" shape="504.80,989.60 505.30,995.59 506.40,999.80 507.50,1004.12 508.00,1010.40"/>
        <lane id=":C5_6_1" index="1" speed="13.89" length="21.12" shape="501.60,989.60 502.10,995.59 503.20,999.80 504.30,1004.12 504.80,1010.40"/>
    </edge>
    <edge id=":C5_8" function="internal">
        <lane id=":C5_8_0" index="0" speed="9.84" length="4.01" shape="501.60,989.60 500.89,993.55"/>
    </edge>
    <edge id=":C5_9" function="internal">
        <lane id=":C5_9_0" index="0" speed="3.24" length="1.60" shape="501.60,989.60 500.00,989.60"/>
    </edge>
    <edge id=":C5_10" function="internal">
        <lane id=":C5_10_0" index="0" speed="3.65" length="1.44" shape="501.60,989.60 500.80,990.80"/>
    </edge>
    <edge id=":C5_21" function="internal">
        <lane id=":C5_21_0" index="0" speed="9.84" length="17.98" shape="500.89,993.55 500.65,994.85 497.80,998.60 493.05,1000.85 486.40,1001.60"/>
    </edge>
    <edge id=":C5_22" function="internal">
        <lane id=":C5_22_0" index="0" speed="3.24" length="1.60" shape="500.00,989.60 498.40,989.60"/>
    </edge>
    <edge id=":C5_23" function="internal">
        <lane id=":C5_23_0" index="0" speed="3.65" length="3.23" shape="500.80,990.80 500.00,991.20 499.20,990.80 498.40,989.60"/>
    </edge>
    <edge id=":C5_11" function="internal">
        <lane id=":C5_11_0" index="0" speed="13.89" length="20.80" shape="504.80,989.60 504.80,1010.40"/>
        <lane id=":C5_11_1" index="1" speed="13.89" length="20.80" shape="501.60,989.60 501.60,1010.40"/>
    </edge>
    <edge id=":C5_13" function="internal">
        <lane id=":C5_13_0" index="0" speed="9.84" length="21.99" shape="501.60,989.60 500.65,994.85 497.80,998.60 493.05,1000.85 486.40,1001.60"/>
    </edge>
    <edge id=":C5_14" function="internal">
        <lane id=":C5_14_0" index="0" speed="4.08" length="6.40" shape="501.60,989.60 495.20,989.60"/>
    </edge>
    <edge id=":C5_15" function="internal">
        <lane id=":C5_15_0" index="0" speed="3.65" length="2.34" shape="501.60,989.60 500.80,990.80 500.00,991.20"/>
    </edge>
    <edge id=":C5_24" function="internal">
        <lane id=":C5_24_0" index="0" speed="3.65" length="2.34" shape="500.00,991.20 499.20,990.80 498.40,989.60"/>
    </edge>
    <edge id=":C5_16" function="internal">
        <lane id=":C5_16_0" index="0" speed="7.33" length="11.73" shape="486.40,995.20 490.25,994.85 493.00,993.80 494.65,992.05 495.20,989.60"/>
    </edge>
    <edge id=":C5_17" function="internal">
        <lane id=":C5_17_0" index="0" speed="8.67" length="16.85" shape="486.40,998.40 491.65,997.85 495.40,996.20 497.65,993.45 498.40,989.60"/>
    </edge>
    <edge id=":C5_18" function="internal">
        <lane id=":C5_18_0" index="0" speed="9.84" length="21.99" shape="486.40,998.40 493.05,999.15 497.80,1001.40 500.65,1005.15 501.60,1010.40"/>
    </edge>
    <edge id=":C5_19" function="internal">
        <lane id=":C5_19_0" index="0" speed="3.65" length="2.34" shape="486.40,998.40 487.60,999.20 488.00,1000.00"/>
    </edge>
    <edge id=":C5_25" function="internal">
        <lane id=":C5_25_0" index="0" speed="3.65" length="2.34" shape="488.00,1000.00 487.60,1000.80 486.40,1001.60"/>
    </edge>
    <edge id=":C5_S_0" function="internal">
        <lane id=":C5_S_0_0" index="0" speed="3.65" length="4.67" shape="498.40,800.00 499.20,798.80 500.00,798.40 500.80,798.80 501.60,800.00"/>
    </edge>
    <edge id=":C5_W_0" function="internal">
        <lane id=":C5_W_0_0" index="0" speed="3.65" length="4.67" shape="300.00,1001.60 298.80,1000.80 298.40,1000.00 298.80,999.20 300.00,998.40"/>
    </edge>
    <edge id=":CON_12_0" function="internal">
        <lane id=":CON_12_0_0" index="0" speed="11.20" length="33.16" shape="1088.29,1292.00 1097.78,1293.20 1103.70,1296.96 1106.23,1303.51 1105.55,1313.05"/>
        <lane id=":CON_12_0_1" index="1" speed="10.10" length="26.74" shape="1088.29,1295.20 1095.76,1296.28 1100.60,1299.51 1102.82,1304.89 1102.41,1312.42"/>
        <lane id=":CON_12_0_2" index="2" speed="8.96" length="20.79" shape="1088.29,1298.40 1094.10,1299.24 1097.87,1301.75 1099.59,1305.94 1099.27,1311.80"/>
    </edge>
    <edge id=":CON_12_3" function="internal">
        <lane id=":CON_12_3_0" index="0" speed="3.90" length="2.97" shape="1089.86,1309.91 1089.90,1309.08 1089.66,1308.48 1089.12,1308.12 1088.29,1308.00"/>
        <lane id=":CON_12_3_1" index="1" speed="6.08" length="8.91" shape="1093.00,1310.54 1093.13,1308.03 1092.39,1306.24 1090.78,1305.16 1088.29,1304.80"/>
        <lane id=":CON_12_3_2" index="2" speed="7.66" length="14.85" shape="1096.13,1311.17 1096.36,1306.98 1095.13,1303.99 1092.44,1302.20 1088.29,1301.60"/>
    </edge>
    <edge id=":CON_13_0" function="internal">
        <lane id=":CON_13_0_0" index="0" speed="8.84" length="25.44" shape="495.20,711.96 496.64,705.02 500.48,700.90 506.04,699.99 512.61,702.64"/>
        <lane id=":CON_13_0_1" index="1" speed="7.89" length="19.93" shape="498.40,711.96 499.18,705.94 501.51,702.82 505.40,702.61 510.84,705.30"/>
    </edge>
    <edge id=":CON_13_2" function="internal">
        <lane id=":CON_13_2_0" index="0" speed="3.99" length="3.99" shape="507.29,710.63 506.20,710.09 505.42,710.13 504.96,710.75 504.80,711.96"/>
        <lane id=":CON_13_2_1" index="1" speed="6.25" length="11.96" shape="509.06,707.96 505.80,706.35 503.47,706.48 502.07,708.35 501.60,711.96"/>
    </edge>
    <edge id=":CON_23_0" function="internal">
        <lane id=":CON_23_0_0" index="0" speed="13.89" length="0.54" shape="1195.66,802.06 1195.43,801.47"/>
        <lane id=":CON_23_0_1" index="1" speed="13.89" length="0.54" shape="1198.60,800.80 1198.43,800.38"/>
    </edge>
    <edge id=":CON_23_2" function="internal">
        <lane id=":CON_23_2_0" index="0" speed="13.89" length="0.18" shape="1204.45,798.19 1204.48,798.27"/>
        <lane id=":CON_23_2_1" index="1" speed="13.89" length="0.18" shape="1201.44,799.28 1201.54,799.53"/>
    </edge>
    <edge id=":D1_0" function="internal">