<?xml version="1.0" encoding="UTF-8"?>
<nodes>
    <node id="R1" x="0"   y="40"  type="traffic_light"/>
    <node id="R2" x="40"  y="0"   type="traffic_light"/>
    <node id="R3" x="0"   y="-40" type="traffic_light"/>
    <node id="R4" x="-40" y="0"   type="traffic_light"/>
    <node id="N"  x="0"   y="180"  type="dead_end"/>
    <node id="E"  x="180" y="0"    type="dead_end"/>
    <node id="S"  x="0"   y="-180" type="dead_end"/>
    <node id="W"  x="-180" y="0"   type="dead_end"/>
</nodes>